/*---------------------------------------------------------------------------*\
  =========                 |
  \\      /  F ield         | OpenFOAM: The Open Source CFD Toolbox
   \\    /   O peration     | Website:  https://openfoam.org
    \\  /    A nd           | Version:  6
     \\/     M anipulation  |
\*---------------------------------------------------------------------------*/
Build  : 6-1a0c91b3baa8
Exec   : multiRegionReactingFoam
Date   : Nov 17 2018
Time   : 20:30:12
Host   : "aris"
PID    : 3665
I/O    : uncollated
Case   : /home/eadaymo/OpenFOAM/eadaymo-6/applications/tonkSolvers/test/multiRegionReactingFoamTutorials/tutorials-OpenFOAM-6/multiRegionReactingFoam-TransientMode/counterFlowFlame2D
nProcs : 1
sigFpe : Enabling floating point exception trapping (FOAM_SIGFPE).
fileModificationChecking : Monitoring run-time modified files using timeStampMaster (fileModificationSkew 10)
allowSystemOperations : Allowing user-supplied system call operations

// * * * * * * * * * * * * * * * * * * * * * * * * * * * * * * * * * * * * * //
Create time

Create fluid mesh for region fluid for time = 0

*** Reading fluid mesh thermophysical properties for region fluid

Reading thermophysical properties

Selecting thermodynamics package 
{
    type            hePsiThermo;
    mixture         reactingMixture;
    transport       sutherland;
    thermo          janaf;
    energy          sensibleEnthalpy;
    equationOfState perfectGas;
    specie          specie;
}

Selecting chemistryReader foamChemistryReader
    elements not defined in "/home/eadaymo/OpenFOAM/eadaymo-6/applications/tonkSolvers/test/multiRegionReactingFoamTutorials/tutorials-OpenFOAM-6/multiRegionReactingFoam-TransientMode/counterFlowFlame2D/constant/fluid/reactions"
    Adding to rhoFluid

    Adding to UFluid

    Adding to phiFluid

    Adding to gFluid

    Adding to turbulence

Selecting turbulence model type laminar
Selecting laminar stress model Stokes
Creating reaction model

Selecting combustion model laminar<psiChemistryCombustion>
--> FOAM Warning : 
    From function static Foam::autoPtr<T> Foam::combustionModel::New(typename CombustionModel::reactionThermo&, const Foam::compressibleTurbulenceModel&, const Foam::word&) [with CombustionModel = Foam::CombustionModel<Foam::psiReactionThermo>; typename CombustionModel::reactionThermo = Foam::psiReactionThermo]
    in file /opt/openfoam6/src/combustionModels/lnInclude/combustionModelTemplates.C at line 69
    Template parameters are no longer required when selecting a combustionModel. This information is now obtained directly from the thermodynamics. Actually selecting combustion model laminar.
Selecting chemistry solver 
{
    solver          EulerImplicit;
    method          standard;
}

StandardChemistryModel: Number of species = 5 and reactions = 1
    using integrated reaction rate
Radiation model not active: radiationProperties not found
Selecting radiationModel none
    Adding to KFluid

    Adding to dpdtFluid

    Adding to Qdot

    Adding MRF

No MRF models present

    Adding fvOptions


PIMPLE: Region fluid
PIMPLE: No convergence criteria found


PIMPLE: Operating solver in PISO mode

Region: fluid Courant Number mean: 2.73409e-05 max: 0.00175681
deltaT = 0.000227273
Region: fluid Courant Number mean: 0.00621383 max: 0.399275
deltaT = 0.000227273

Starting time loop

Region: fluid Courant Number mean: 0.00621383 max: 0.399275
deltaT = 0.000227273
Time = 0.000227273


Solving for fluid region fluid
diagonal:  Solving for rho, Initial residual = 0, Final residual = 0, No Iterations 0
DILUPBiCGStab:  Solving for O2, Initial residual = 1, Final residual = 0.085432, No Iterations 1
DILUPBiCGStab:  Solving for H2O, Initial residual = 0, Final residual = 0, No Iterations 0
DILUPBiCGStab:  Solving for CH4, Initial residual = 1, Final residual = 0.0906907, No Iterations 1
DILUPBiCGStab:  Solving for CO2, Initial residual = 0, Final residual = 0, No Iterations 0
DILUPBiCGStab:  Solving for h, Initial residual = 1, Final residual = 0.0235245, No Iterations 1
Min/max T:293 2000
DICPCG:  Solving for p, Initial residual = 1, Final residual = 9.00121e-07, No Iterations 66
diagonal:  Solving for rho, Initial residual = 0, Final residual = 0, No Iterations 0
time step continuity errors : sum local = 1.77537e-08, global = 5.07432e-10, cumulative = 5.07432e-10
ExecutionTime = 0.05 s  ClockTime = 0 s

Region: fluid Courant Number mean: 0.497675 max: 1.59391
deltaT = 5.70134e-05
Time = 0.000284286


Solving for fluid region fluid
diagonal:  Solving for rho, Initial residual = 0, Final residual = 0, No Iterations 0
DILUPBiCGStab:  Solving for O2, Initial residual = 0.0505783, Final residual = 0.000754008, No Iterations 1
DILUPBiCGStab:  Solving for H2O, Initial residual = 3.3364e-15, Final residual = 3.3364e-15, No Iterations 0
DILUPBiCGStab:  Solving for CH4, Initial residual = 0.0409903, Final residual = 0.000413237, No Iterations 1
DILUPBiCGStab:  Solving for CO2, Initial residual = 4.07529e-15, Final residual = 4.07529e-15, No Iterations 0
DILUPBiCGStab:  Solving for h, Initial residual = 0.169947, Final residual = 0.00715926, No Iterations 1
Min/max T:293 1999.99
DICPCG:  Solving for p, Initial residual = 0.0527645, Final residual = 7.58276e-07, No Iterations 55
diagonal:  Solving for rho, Initial residual = 0, Final residual = 0, No Iterations 0
time step continuity errors : sum local = 3.54046e-07, global = 2.48645e-08, cumulative = 2.48645e-08
ExecutionTime = 0.06 s  ClockTime = 0 s

Region: fluid Courant Number mean: 0.0573809 max: 0.313503
deltaT = 6.42322e-05
Time = 0.000348518


Solving for fluid region fluid
diagonal:  Solving for rho, Initial residual = 0, Final residual = 0, No Iterations 0
DILUPBiCGStab:  Solving for O2, Initial residual = 0.0416498, Final residual = 0.000714056, No Iterations 1
DILUPBiCGStab:  Solving for H2O, Initial residual = 3.57977e-15, Final residual = 3.57977e-15, No Iterations 0
DILUPBiCGStab:  Solving for CH4, Initial residual = 0.0432082, Final residual = 0.000533444, No Iterations 1
DILUPBiCGStab:  Solving for CO2, Initial residual = 4.37255e-15, Final residual = 4.37255e-15, No Iterations 0
DILUPBiCGStab:  Solving for h, Initial residual = 0.107864, Final residual = 0.00373122, No Iterations 1
Min/max T:293 2000.19
DICPCG:  Solving for p, Initial residual = 0.0239654, Final residual = 9.08123e-07, No Iterations 54
diagonal:  Solving for rho, Initial residual = 0, Final residual = 0, No Iterations 0
time step continuity errors : sum local = 3.1208e-07, global = -6.63095e-10, cumulative = -6.63095e-10
ExecutionTime = 0.08 s  ClockTime = 0 s

Region: fluid Courant Number mean: 0.0631084 max: 0.27413
deltaT = 7.35578e-05
Time = 0.000422076


Solving for fluid region fluid
diagonal:  Solving for rho, Initial residual = 0, Final residual = 0, No Iterations 0
DILUPBiCGStab:  Solving for O2, Initial residual = 0.0382861, Final residual = 0.000774457, No Iterations 1
DILUPBiCGStab:  Solving for H2O, Initial residual = 6.96639e-15, Final residual = 6.96639e-15, No Iterations 0
DILUPBiCGStab:  Solving for CH4, Initial residual = 0.038242, Final residual = 0.000563757, No Iterations 1
DILUPBiCGStab:  Solving for CO2, Initial residual = 8.50917e-15, Final residual = 8.50917e-15, No Iterations 0
DILUPBiCGStab:  Solving for h, Initial residual = 0.0780052, Final residual = 0.00298794, No Iterations 1
Min/max T:293 2000.08
DICPCG:  Solving for p, Initial residual = 0.142128, Final residual = 7.81806e-07, No Iterations 58
diagonal:  Solving for rho, Initial residual = 0, Final residual = 0, No Iterations 0
time step continuity errors : sum local = 1.67934e-08, global = -4.33799e-10, cumulative = -4.33799e-10
ExecutionTime = 0.09 s  ClockTime = 0 s

Region: fluid Courant Number mean: 0.0653723 max: 0.252447
deltaT = 8.51854e-05
Time = 0.000507262


Solving for fluid region fluid
diagonal:  Solving for rho, Initial residual = 0, Final residual = 0, No Iterations 0
DILUPBiCGStab:  Solving for O2, Initial residual = 0.03482, Final residual = 0.000833547, No Iterations 1
DILUPBiCGStab:  Solving for H2O, Initial residual = 1.70383e-14, Final residual = 1.70383e-14, No Iterations 0
DILUPBiCGStab:  Solving for CH4, Initial residual = 0.0355223, Final residual = 0.000636983, No Iterations 1
DILUPBiCGStab:  Solving for CO2, Initial residual = 2.08117e-14, Final residual = 2.08117e-14, No Iterations 0
DILUPBiCGStab:  Solving for h, Initial residual = 0.0615718, Final residual = 0.00272314, No Iterations 1
Min/max T:293 2000.08
DICPCG:  Solving for p, Initial residual = 0.213002, Final residual = 8.2615e-07, No Iterations 58
diagonal:  Solving for rho, Initial residual = 0, Final residual = 0, No Iterations 0
time step continuity errors : sum local = 6.01349e-09, global = -1.30764e-10, cumulative = -1.30764e-10
ExecutionTime = 0.11 s  ClockTime = 0 s

Region: fluid Courant Number mean: 0.0648094 max: 0.235688
deltaT = 9.9583e-05
Time = 0.000606845


Solving for fluid region fluid
diagonal:  Solving for rho, Initial residual = 0, Final residual = 0, No Iterations 0
DILUPBiCGStab:  Solving for O2, Initial residual = 0.0327916, Final residual = 0.000948477, No Iterations 1
DILUPBiCGStab:  Solving for H2O, Initial residual = 4.89669e-14, Final residual = 4.89669e-14, No Iterations 0
DILUPBiCGStab:  Solving for CH4, Initial residual = 0.0336923, Final residual = 0.000730464, No Iterations 1
DILUPBiCGStab:  Solving for CO2, Initial residual = 5.98112e-14, Final residual = 5.98112e-14, No Iterations 0
DILUPBiCGStab:  Solving for h, Initial residual = 0.0509798, Final residual = 0.00264552, No Iterations 1
Min/max T:293 2000.08
DICPCG:  Solving for p, Initial residual = 0.0219532, Final residual = 8.16327e-07, No Iterations 51
diagonal:  Solving for rho, Initial residual = 0, Final residual = 0, No Iterations 0
time step continuity errors : sum local = 3.5454e-08, global = -5.54726e-10, cumulative = -5.54726e-10
ExecutionTime = 0.13 s  ClockTime = 0 s

Region: fluid Courant Number mean: 0.065326 max: 0.221211
deltaT = 0.000117323
Time = 0.000724168


Solving for fluid region fluid
diagonal:  Solving for rho, Initial residual = 0, Final residual = 0, No Iterations 0
DILUPBiCGStab:  Solving for O2, Initial residual = 0.0312424, Final residual = 0.00109374, No Iterations 1
DILUPBiCGStab:  Solving for H2O, Initial residual = 1.69365e-13, Final residual = 1.69365e-13, No Iterations 0
DILUPBiCGStab:  Solving for CH4, Initial residual = 0.0321932, Final residual = 0.000864138, No Iterations 1
DILUPBiCGStab:  Solving for CO2, Initial residual = 2.06873e-13, Final residual = 2.06873e-13, No Iterations 0
DILUPBiCGStab:  Solving for h, Initial residual = 0.0437462, Final residual = 0.00270018, No Iterations 1
Min/max T:293 2000.08
DICPCG:  Solving for p, Initial residual = 0.020696, Final residual = 9.66955e-07, No Iterations 46
diagonal:  Solving for rho, Initial residual = 0, Final residual = 0, No Iterations 0
time step continuity errors : sum local = 4.36305e-08, global = 6.0929e-10, cumulative = 6.0929e-10
ExecutionTime = 0.15 s  ClockTime = 0 s

Region: fluid Courant Number mean: 0.0655753 max: 0.204998
deltaT = 0.000139988
Time = 0.000864156


Solving for fluid region fluid
diagonal:  Solving for rho, Initial residual = 0, Final residual = 0, No Iterations 0
DILUPBiCGStab:  Solving for O2, Initial residual = 0.0304207, Final residual = 0.00131798, No Iterations 1
DILUPBiCGStab:  Solving for H2O, Initial residual = 7.37765e-13, Final residual = 7.37765e-13, No Iterations 0
DILUPBiCGStab:  Solving for CH4, Initial residual = 0.0314776, Final residual = 0.00107546, No Iterations 1
DILUPBiCGStab:  Solving for CO2, Initial residual = 9.01152e-13, Final residual = 9.01152e-13, No Iterations 0
DILUPBiCGStab:  Solving for h, Initial residual = 0.0389093, Final residual = 0.00286347, No Iterations 1
Min/max T:293 2000.08
DICPCG:  Solving for p, Initial residual = 0.0184607, Final residual = 9.31481e-07, No Iterations 44
diagonal:  Solving for rho, Initial residual = 0, Final residual = 0, No Iterations 0
time step continuity errors : sum local = 5.0058e-08, global = 8.13632e-10, cumulative = 8.13632e-10
ExecutionTime = 0.16 s  ClockTime = 0 s

Region: fluid Courant Number mean: 0.0660257 max: 0.191509
deltaT = 0.000167699
Time = 0.00103186


Solving for fluid region fluid
diagonal:  Solving for rho, Initial residual = 0, Final residual = 0, No Iterations 0
DILUPBiCGStab:  Solving for O2, Initial residual = 0.0298767, Final residual = 0.00161184, No Iterations 1
DILUPBiCGStab:  Solving for H2O, Initial residual = 4.37078e-12, Final residual = 4.37078e-12, No Iterations 0
DILUPBiCGStab:  Solving for CH4, Initial residual = 0.031072, Final residual = 0.00131231, No Iterations 1
DILUPBiCGStab:  Solving for CO2, Initial residual = 5.33875e-12, Final residual = 5.33875e-12, No Iterations 0
DILUPBiCGStab:  Solving for h, Initial residual = 0.0353384, Final residual = 0.00308291, No Iterations 1
Min/max T:293 2000.08
DICPCG:  Solving for p, Initial residual = 0.0157542, Final residual = 9.42377e-07, No Iterations 45
diagonal:  Solving for rho, Initial residual = 0, Final residual = 0, No Iterations 0
time step continuity errors : sum local = 6.06028e-08, global = -1.28986e-09, cumulative = -1.28986e-09
ExecutionTime = 0.18 s  ClockTime = 0 s

Region: fluid Courant Number mean: 0.0667196 max: 0.200003
deltaT = 0.000200689
Time = 0.00123254


Solving for fluid region fluid
diagonal:  Solving for rho, Initial residual = 0, Final residual = 0, No Iterations 0
DILUPBiCGStab:  Solving for O2, Initial residual = 0.0295074, Final residual = 0.00197316, No Iterations 1
DILUPBiCGStab:  Solving for H2O, Initial residual = 3.88617e-11, Final residual = 3.88617e-11, No Iterations 0
DILUPBiCGStab:  Solving for CH4, Initial residual = 0.0307941, Final residual = 0.00161814, No Iterations 1
DILUPBiCGStab:  Solving for CO2, Initial residual = 4.74681e-11, Final residual = 4.74681e-11, No Iterations 0
DILUPBiCGStab:  Solving for h, Initial residual = 0.032586, Final residual = 0.000447335, No Iterations 1
Min/max T:293 2000.07
DICPCG:  Solving for p, Initial residual = 0.0255806, Final residual = 7.54881e-07, No Iterations 53
diagonal:  Solving for rho, Initial residual = 0, Final residual = 0, No Iterations 0
time step continuity errors : sum local = 5.5763e-08, global = 8.7178e-10, cumulative = 8.7178e-10
ExecutionTime = 0.19 s  ClockTime = 0 s

Region: fluid Courant Number mean: 0.0716468 max: 0.228807
deltaT = 0.000235592
Time = 0.00146814


Solving for fluid region fluid
diagonal:  Solving for rho, Initial residual = 0, Final residual = 0, No Iterations 0
DILUPBiCGStab:  Solving for O2, Initial residual = 0.0297252, Final residual = 0.00235553, No Iterations 1
DILUPBiCGStab:  Solving for H2O, Initial residual = 5.89661e-10, Final residual = 5.89661e-10, No Iterations 0
DILUPBiCGStab:  Solving for CH4, Initial residual = 0.0311742, Final residual = 0.00195876, No Iterations 1
DILUPBiCGStab:  Solving for CO2, Initial residual = 7.20248e-10, Final residual = 7.20248e-10, No Iterations 0
DILUPBiCGStab:  Solving for h, Initial residual = 0.0314605, Final residual = 0.000577937, No Iterations 1
Min/max T:293 2000.07
DICPCG:  Solving for p, Initial residual = 0.10107, Final residual = 6.5782e-07, No Iterations 57
diagonal:  Solving for rho, Initial residual = 0, Final residual = 0, No Iterations 0
time step continuity errors : sum local = 2.04543e-08, global = 3.1695e-10, cumulative = 3.1695e-10
ExecutionTime = 0.21 s  ClockTime = 0 s

Region: fluid Courant Number mean: 0.0770099 max: 0.247454
deltaT = 0.000272651
Time = 0.00174079


Solving for fluid region fluid
diagonal:  Solving for rho, Initial residual = 0, Final residual = 0, No Iterations 0
DILUPBiCGStab:  Solving for O2, Initial residual = 0.0279372, Final residual = 0.00255392, No Iterations 1
DILUPBiCGStab:  Solving for H2O, Initial residual = 1.50892e-08, Final residual = 1.50892e-08, No Iterations 0
DILUPBiCGStab:  Solving for CH4, Initial residual = 0.0296368, Final residual = 0.00217292, No Iterations 1
DILUPBiCGStab:  Solving for CO2, Initial residual = 1.84308e-08, Final residual = 1.84308e-08, No Iterations 0
DILUPBiCGStab:  Solving for h, Initial residual = 0.0298934, Final residual = 0.000704931, No Iterations 1
Min/max T:293 2000.06
DICPCG:  Solving for p, Initial residual = 0.0609294, Final residual = 8.87113e-07, No Iterations 55
diagonal:  Solving for rho, Initial residual = 0, Final residual = 0, No Iterations 0
time step continuity errors : sum local = 3.34016e-08, global = -1.37984e-09, cumulative = -1.37984e-09
ExecutionTime = 0.24 s  ClockTime = 0 s

Region: fluid Courant Number mean: 0.0797803 max: 0.270435
deltaT = 0.00031135
Time = 0.00205214


Solving for fluid region fluid
diagonal:  Solving for rho, Initial residual = 0, Final residual = 0, No Iterations 0
DILUPBiCGStab:  Solving for O2, Initial residual = 0.027156, Final residual = 0.000343566, No Iterations 1
DILUPBiCGStab:  Solving for H2O, Initial residual = 5.13234e-07, Final residual = 5.13234e-07, No Iterations 0
DILUPBiCGStab:  Solving for CH4, Initial residual = 0.0285509, Final residual = 0.00238163, No Iterations 1
DILUPBiCGStab:  Solving for CO2, Initial residual = 6.26895e-07, Final residual = 6.26895e-07, No Iterations 0
DILUPBiCGStab:  Solving for h, Initial residual = 0.0280286, Final residual = 0.000810869, No Iterations 1
Min/max T:293 2000.06
DICPCG:  Solving for p, Initial residual = 0.0148696, Final residual = 9.52866e-07, No Iterations 49
diagonal:  Solving for rho, Initial residual = 0, Final residual = 0, No Iterations 0
time step continuity errors : sum local = 1.04578e-07, global = -5.84671e-09, cumulative = -5.84671e-09
ExecutionTime = 0.25 s  ClockTime = 0 s

Region: fluid Courant Number mean: 0.0858939 max: 0.312615
deltaT = 0.000349984
Time = 0.00240212


Solving for fluid region fluid
diagonal:  Solving for rho, Initial residual = 0, Final residual = 0, No Iterations 0
DILUPBiCGStab:  Solving for O2, Initial residual = 0.0260027, Final residual = 0.000405645, No Iterations 1
DILUPBiCGStab:  Solving for H2O, Initial residual = 2.26858e-05, Final residual = 1.9469e-06, No Iterations 1
DILUPBiCGStab:  Solving for CH4, Initial residual = 0.0272449, Final residual = 0.00249636, No Iterations 1
DILUPBiCGStab:  Solving for CO2, Initial residual = 2.77097e-05, Final residual = 2.37805e-06, No Iterations 1
DILUPBiCGStab:  Solving for h, Initial residual = 0.0261292, Final residual = 0.000900501, No Iterations 1
Min/max T:293 2000.06
DICPCG:  Solving for p, Initial residual = 0.0137228, Final residual = 9.54632e-07, No Iterations 46
diagonal:  Solving for rho, Initial residual = 0, Final residual = 0, No Iterations 0
time step continuity errors : sum local = 9.17363e-08, global = -3.51646e-09, cumulative = -3.51646e-09
ExecutionTime = 0.27 s  ClockTime = 0 s

Region: fluid Courant Number mean: 0.0938115 max: 0.358245
deltaT = 0.000386975
Time = 0.0027891


Solving for fluid region fluid
diagonal:  Solving for rho, Initial residual = 0, Final residual = 0, No Iterations 0
DILUPBiCGStab:  Solving for O2, Initial residual = 0.0247331, Final residual = 0.000458694, No Iterations 1
DILUPBiCGStab:  Solving for H2O, Initial residual = 0.000832322, Final residual = 7.3965e-05, No Iterations 1
DILUPBiCGStab:  Solving for CH4, Initial residual = 0.0259833, Final residual = 0.00258045, No Iterations 1
DILUPBiCGStab:  Solving for CO2, Initial residual = 0.00101644, Final residual = 9.03272e-05, No Iterations 1
DILUPBiCGStab:  Solving for h, Initial residual = 0.0244604, Final residual = 0.000983353, No Iterations 1
Min/max T:293 2000.05
DICPCG:  Solving for p, Initial residual = 0.0128218, Final residual = 7.54031e-07, No Iterations 46
diagonal:  Solving for rho, Initial residual = 0, Final residual = 0, No Iterations 0
time step continuity errors : sum local = 7.54562e-08, global = -2.78273e-09, cumulative = -2.78273e-09
ExecutionTime = 0.28 s  ClockTime = 0 s

Region: fluid Courant Number mean: 0.102818 max: 0.403609
deltaT = 0.000380733
Time = 0.00316983


Solving for fluid region fluid
diagonal:  Solving for rho, Initial residual = 0, Final residual = 0, No Iterations 0
DILUPBiCGStab:  Solving for O2, Initial residual = 0.0215627, Final residual = 0.000376479, No Iterations 1
DILUPBiCGStab:  Solving for H2O, Initial residual = 0.0235402, Final residual = 0.00183201, No Iterations 1
DILUPBiCGStab:  Solving for CH4, Initial residual = 0.0227159, Final residual = 0.0021771, No Iterations 1
DILUPBiCGStab:  Solving for CO2, Initial residual = 0.0285837, Final residual = 0.00222452, No Iterations 1
DILUPBiCGStab:  Solving for h, Initial residual = 0.0212564, Final residual = 0.000838316, No Iterations 1
Min/max T:293 2000.05
DICPCG:  Solving for p, Initial residual = 0.013231, Final residual = 8.68573e-07, No Iterations 46
diagonal:  Solving for rho, Initial residual = 0, Final residual = 0, No Iterations 0
time step continuity errors : sum local = 7.3718e-08, global = 1.43801e-10, cumulative = 1.43801e-10
ExecutionTime = 0.3 s  ClockTime = 0 s

Region: fluid Courant Number mean: 0.100986 max: 0.393536
deltaT = 0.000383854
Time = 0.00355368


Solving for fluid region fluid
diagonal:  Solving for rho, Initial residual = 0, Final residual = 0, No Iterations 0
DILUPBiCGStab:  Solving for O2, Initial residual = 0.0193183, Final residual = 0.000334188, No Iterations 1
DILUPBiCGStab:  Solving for H2O, Initial residual = 0.263382, Final residual = 0.0190257, No Iterations 1
DILUPBiCGStab:  Solving for CH4, Initial residual = 0.0205359, Final residual = 0.0019446, No Iterations 1
DILUPBiCGStab:  Solving for CO2, Initial residual = 0.299853, Final residual = 0.0216602, No Iterations 1
DILUPBiCGStab:  Solving for h, Initial residual = 0.0194464, Final residual = 0.000790076, No Iterations 1
Min/max T:293 2000.04
DICPCG:  Solving for p, Initial residual = 0.0241527, Final residual = 9.0373e-07, No Iterations 47
diagonal:  Solving for rho, Initial residual = 0, Final residual = 0, No Iterations 0
time step continuity errors : sum local = 4.60893e-08, global = -4.63499e-10, cumulative = -4.63499e-10
ExecutionTime = 0.32 s  ClockTime = 0 s

Region: fluid Courant Number mean: 0.103647 max: 0.396442
deltaT = 0.000387053
Time = 0.00394074


Solving for fluid region fluid
diagonal:  Solving for rho, Initial residual = 0, Final residual = 0, No Iterations 0
DILUPBiCGStab:  Solving for O2, Initial residual = 0.0176484, Final residual = 0.000301861, No Iterations 1
DILUPBiCGStab:  Solving for H2O, Initial residual = 0.637872, Final residual = 0.042782, No Iterations 1
DILUPBiCGStab:  Solving for CH4, Initial residual = 0.0188105, Final residual = 0.00175682, No Iterations 1
DILUPBiCGStab:  Solving for CO2, Initial residual = 0.654042, Final residual = 0.0438665, No Iterations 1
DILUPBiCGStab:  Solving for h, Initial residual = 0.0181068, Final residual = 0.000758049, No Iterations 1
Min/max T:293 2000.03
DICPCG:  Solving for p, Initial residual = 0.0215653, Final residual = 7.94467e-07, No Iterations 47
diagonal:  Solving for rho, Initial residual = 0, Final residual = 0, No Iterations 0
time step continuity errors : sum local = 4.03476e-08, global = 4.82568e-10, cumulative = 4.82568e-10
ExecutionTime = 0.34 s  ClockTime = 0 s

Region: fluid Courant Number mean: 0.106304 max: 0.399862
deltaT = 0.000387053
Time = 0.00432779


Solving for fluid region fluid
diagonal:  Solving for rho, Initial residual = 0, Final residual = 0, No Iterations 0
DILUPBiCGStab:  Solving for O2, Initial residual = 0.0161275, Final residual = 0.000269464, No Iterations 1
DILUPBiCGStab:  Solving for H2O, Initial residual = 0.669295, Final residual = 0.0420341, No Iterations 1
DILUPBiCGStab:  Solving for CH4, Initial residual = 0.0172688, Final residual = 0.00157886, No Iterations 1
DILUPBiCGStab:  Solving for CO2, Initial residual = 0.671157, Final residual = 0.042151, No Iterations 1
DILUPBiCGStab:  Solving for h, Initial residual = 0.0169364, Final residual = 0.000717854, No Iterations 1
Min/max T:293 2000
DICPCG:  Solving for p, Initial residual = 0.0245109, Final residual = 8.98843e-07, No Iterations 46
diagonal:  Solving for rho, Initial residual = 0, Final residual = 0, No Iterations 0
time step continuity errors : sum local = 3.63308e-08, global = -9.97384e-10, cumulative = -9.97384e-10
ExecutionTime = 0.36 s  ClockTime = 0 s

Region: fluid Courant Number mean: 0.108535 max: 0.398906
deltaT = 0.000387053
Time = 0.00471484


Solving for fluid region fluid
diagonal:  Solving for rho, Initial residual = 0, Final residual = 0, No Iterations 0
DILUPBiCGStab:  Solving for O2, Initial residual = 0.0148595, Final residual = 0.000242497, No Iterations 1
DILUPBiCGStab:  Solving for H2O, Initial residual = 0.621148, Final residual = 0.0365077, No Iterations 1
DILUPBiCGStab:  Solving for CH4, Initial residual = 0.015983, Final residual = 0.00144067, No Iterations 1
DILUPBiCGStab:  Solving for CO2, Initial residual = 0.62136, Final residual = 0.0365202, No Iterations 1
DILUPBiCGStab:  Solving for h, Initial residual = 0.0159967, Final residual = 0.000683677, No Iterations 1
Min/max T:293 1999.95
DICPCG:  Solving for p, Initial residual = 0.0272607, Final residual = 8.70506e-07, No Iterations 46
diagonal:  Solving for rho, Initial residual = 0, Final residual = 0, No Iterations 0
time step continuity errors : sum local = 2.95116e-08, global = -7.82064e-10, cumulative = -7.82064e-10
ExecutionTime = 0.37 s  ClockTime = 0 s

Region: fluid Courant Number mean: 0.110911 max: 0.397067
deltaT = 0.000387053
Time = 0.00510189


Solving for fluid region fluid
diagonal:  Solving for rho, Initial residual = 0, Final residual = 0, No Iterations 0
DILUPBiCGStab:  Solving for O2, Initial residual = 0.0137869, Final residual = 0.000220359, No Iterations 1
DILUPBiCGStab:  Solving for H2O, Initial residual = 0.570171, Final residual = 0.0313573, No Iterations 1
DILUPBiCGStab:  Solving for CH4, Initial residual = 0.0148893, Final residual = 0.00132197, No Iterations 1
DILUPBiCGStab:  Solving for CO2, Initial residual = 0.5702, Final residual = 0.0313588, No Iterations 1
DILUPBiCGStab:  Solving for h, Initial residual = 0.015211, Final residual = 0.000653706, No Iterations 1
Min/max T:293 1999.88
DICPCG:  Solving for p, Initial residual = 0.0301221, Final residual = 6.4786e-07, No Iterations 47
diagonal:  Solving for rho, Initial residual = 0, Final residual = 0, No Iterations 0
time step continuity errors : sum local = 1.88412e-08, global = -3.38303e-10, cumulative = -3.38303e-10
ExecutionTime = 0.39 s  ClockTime = 0 s

Region: fluid Courant Number mean: 0.113234 max: 0.394702
deltaT = 0.000390418
Time = 0.00549231


Solving for fluid region fluid
diagonal:  Solving for rho, Initial residual = 0, Final residual = 0, No Iterations 0
DILUPBiCGStab:  Solving for O2, Initial residual = 0.012958, Final residual = 0.000206678, No Iterations 1
DILUPBiCGStab:  Solving for H2O, Initial residual = 0.524442, Final residual = 0.0271001, No Iterations 1
DILUPBiCGStab:  Solving for CH4, Initial residual = 0.0140502, Final residual = 0.0012387, No Iterations 1
DILUPBiCGStab:  Solving for CO2, Initial residual = 0.524446, Final residual = 0.0271004, No Iterations 1
DILUPBiCGStab:  Solving for h, Initial residual = 0.0146641, Final residual = 0.000640964, No Iterations 1
Min/max T:293 1999.76
DICPCG:  Solving for p, Initial residual = 0.0340097, Final residual = 8.74889e-07, No Iterations 48
diagonal:  Solving for rho, Initial residual = 0, Final residual = 0, No Iterations 0
time step continuity errors : sum local = 2.19354e-08, global = 5.49613e-10, cumulative = 5.49613e-10
ExecutionTime = 0.41 s  ClockTime = 0 s

Region: fluid Courant Number mean: 0.116571 max: 0.39581
deltaT = 0.000393873
Time = 0.00588618


Solving for fluid region fluid
diagonal:  Solving for rho, Initial residual = 0, Final residual = 0, No Iterations 0
DILUPBiCGStab:  Solving for O2, Initial residual = 0.0122356, Final residual = 0.000194623, No Iterations 1
DILUPBiCGStab:  Solving for H2O, Initial residual = 0.482605, Final residual = 0.0242099, No Iterations 1
DILUPBiCGStab:  Solving for CH4, Initial residual = 0.0133147, Final residual = 0.00116587, No Iterations 1
DILUPBiCGStab:  Solving for CO2, Initial residual = 0.482606, Final residual = 0.02421, No Iterations 1
DILUPBiCGStab:  Solving for h, Initial residual = 0.0142083, Final residual = 0.000629973, No Iterations 1
Min/max T:293 1999.58
DICPCG:  Solving for p, Initial residual = 0.0358651, Final residual = 7.27532e-07, No Iterations 47
diagonal:  Solving for rho, Initial residual = 0, Final residual = 0, No Iterations 0
time step continuity errors : sum local = 1.66134e-08, global = -1.41159e-10, cumulative = -1.41159e-10
ExecutionTime = 0.42 s  ClockTime = 0 s

Region: fluid Courant Number mean: 0.119835 max: 0.397817
deltaT = 0.000393873
Time = 0.00628006


Solving for fluid region fluid
diagonal:  Solving for rho, Initial residual = 0, Final residual = 0, No Iterations 0
DILUPBiCGStab:  Solving for O2, Initial residual = 0.0115001, Final residual = 0.000179789, No Iterations 1
DILUPBiCGStab:  Solving for H2O, Initial residual = 0.443231, Final residual = 0.021442, No Iterations 1
DILUPBiCGStab:  Solving for CH4, Initial residual = 0.012561, Final residual = 0.00108392, No Iterations 1
DILUPBiCGStab:  Solving for CO2, Initial residual = 0.443231, Final residual = 0.021442, No Iterations 1
DILUPBiCGStab:  Solving for h, Initial residual = 0.0137023, Final residual = 0.000604844, No Iterations 1
Min/max T:293 1999.33
DICPCG:  Solving for p, Initial residual = 0.0374117, Final residual = 8.19374e-07, No Iterations 51
diagonal:  Solving for rho, Initial residual = 0, Final residual = 0, No Iterations 0
time step continuity errors : sum local = 1.639e-08, global = 4.94053e-10, cumulative = 4.94053e-10
ExecutionTime = 0.44 s  ClockTime = 0 s

Region: fluid Courant Number mean: 0.121885 max: 0.395419
deltaT = 0.000397454
Time = 0.00667751


Solving for fluid region fluid
diagonal:  Solving for rho, Initial residual = 0, Final residual = 0, No Iterations 0
DILUPBiCGStab:  Solving for O2, Initial residual = 0.0109339, Final residual = 0.000171469, No Iterations 1
DILUPBiCGStab:  Solving for H2O, Initial residual = 0.408057, Final residual = 0.0193494, No Iterations 1
DILUPBiCGStab:  Solving for CH4, Initial residual = 0.0119846, Final residual = 0.00103209, No Iterations 1
DILUPBiCGStab:  Solving for CO2, Initial residual = 0.408057, Final residual = 0.0193494, No Iterations 1
DILUPBiCGStab:  Solving for h, Initial residual = 0.0133744, Final residual = 0.000595824, No Iterations 1
Min/max T:293 1998.99
DICPCG:  Solving for p, Initial residual = 0.0423837, Final residual = 9.24912e-07, No Iterations 53
diagonal:  Solving for rho, Initial residual = 0, Final residual = 0, No Iterations 0
time step continuity errors : sum local = 1.56859e-08, global = 1.36817e-10, cumulative = 1.36817e-10
ExecutionTime = 0.46 s  ClockTime = 0 s

Region: fluid Courant Number mean: 0.125016 max: 0.396714
deltaT = 0.000397454
Time = 0.00707497


Solving for fluid region fluid
diagonal:  Solving for rho, Initial residual = 0, Final residual = 0, No Iterations 0
DILUPBiCGStab:  Solving for O2, Initial residual = 0.0103416, Final residual = 0.00015978, No Iterations 1
DILUPBiCGStab:  Solving for H2O, Initial residual = 0.375391, Final residual = 0.0172817, No Iterations 1
DILUPBiCGStab:  Solving for CH4, Initial residual = 0.0113712, Final residual = 0.000967349, No Iterations 1
DILUPBiCGStab:  Solving for CO2, Initial residual = 0.375391, Final residual = 0.0172817, No Iterations 1
DILUPBiCGStab:  Solving for h, Initial residual = 0.0129961, Final residual = 0.000575507, No Iterations 1
Min/max T:293 1998.55
DICPCG:  Solving for p, Initial residual = 0.0456748, Final residual = 8.58414e-07, No Iterations 50
diagonal:  Solving for rho, Initial residual = 0, Final residual = 0, No Iterations 0
time step continuity errors : sum local = 1.32721e-08, global = 3.5505e-10, cumulative = 3.5505e-10
ExecutionTime = 0.48 s  ClockTime = 0 s

Region: fluid Courant Number mean: 0.126802 max: 0.393889
deltaT = 0.000401169
Time = 0.00747613


Solving for fluid region fluid
diagonal:  Solving for rho, Initial residual = 0, Final residual = 0, No Iterations 0
DILUPBiCGStab:  Solving for O2, Initial residual = 0.00988744, Final residual = 0.00015347, No Iterations 1
DILUPBiCGStab:  Solving for H2O, Initial residual = 0.346546, Final residual = 0.0157693, No Iterations 1
DILUPBiCGStab:  Solving for CH4, Initial residual = 0.0109051, Final residual = 0.000924787, No Iterations 1
DILUPBiCGStab:  Solving for CO2, Initial residual = 0.346546, Final residual = 0.0157693, No Iterations 1
DILUPBiCGStab:  Solving for h, Initial residual = 0.0127523, Final residual = 0.000568499, No Iterations 1
Min/max T:293 1997.97
DICPCG:  Solving for p, Initial residual = 0.0521942, Final residual = 8.4353e-07, No Iterations 52
diagonal:  Solving for rho, Initial residual = 0, Final residual = 0, No Iterations 0
time step continuity errors : sum local = 1.12034e-08, global = 5.28697e-10, cumulative = 5.28697e-10
ExecutionTime = 0.5 s  ClockTime = 0 s

Region: fluid Courant Number mean: 0.129775 max: 0.394684
deltaT = 0.000404989
Time = 0.00788112


Solving for fluid region fluid
diagonal:  Solving for rho, Initial residual = 0, Final residual = 0, No Iterations 0
DILUPBiCGStab:  Solving for O2, Initial residual = 0.00948075, Final residual = 0.00014802, No Iterations 1
DILUPBiCGStab:  Solving for H2O, Initial residual = 0.321142, Final residual = 0.0144724, No Iterations 1
DILUPBiCGStab:  Solving for CH4, Initial residual = 0.0104814, Final residual = 0.000886636, No Iterations 1
DILUPBiCGStab:  Solving for CO2, Initial residual = 0.321142, Final residual = 0.0144724, No Iterations 1
DILUPBiCGStab:  Solving for h, Initial residual = 0.0125682, Final residual = 0.000565243, No Iterations 1
Min/max T:293 1997.25
DICPCG:  Solving for p, Initial residual = 0.0570495, Final residual = 8.00539e-07, No Iterations 54
diagonal:  Solving for rho, Initial residual = 0, Final residual = 0, No Iterations 0
time step continuity errors : sum local = 9.9615e-09, global = 2.51022e-10, cumulative = 2.51022e-10
ExecutionTime = 0.52 s  ClockTime = 0 s

Region: fluid Courant Number mean: 0.13263 max: 0.395246
deltaT = 0.000408921
Time = 0.00829005


Solving for fluid region fluid
diagonal:  Solving for rho, Initial residual = 0, Final residual = 0, No Iterations 0
DILUPBiCGStab:  Solving for O2, Initial residual = 0.00910698, Final residual = 0.000143129, No Iterations 1
DILUPBiCGStab:  Solving for H2O, Initial residual = 0.298126, Final residual = 0.0133224, No Iterations 1
DILUPBiCGStab:  Solving for CH4, Initial residual = 0.0100912, Final residual = 0.000853602, No Iterations 1
DILUPBiCGStab:  Solving for CO2, Initial residual = 0.298126, Final residual = 0.0133224, No Iterations 1
DILUPBiCGStab:  Solving for h, Initial residual = 0.0124011, Final residual = 0.000561807, No Iterations 1
Min/max T:293 1996.36
DICPCG:  Solving for p, Initial residual = 0.0628904, Final residual = 8.44079e-07, No Iterations 52
diagonal:  Solving for rho, Initial residual = 0, Final residual = 0, No Iterations 0
time step continuity errors : sum local = 9.5659e-09, global = 4.82935e-10, cumulative = 4.82935e-10
ExecutionTime = 0.54 s  ClockTime = 0 s

Region: fluid Courant Number mean: 0.13548 max: 0.3968
deltaT = 0.000408921
Time = 0.00869897


Solving for fluid region fluid
diagonal:  Solving for rho, Initial residual = 0, Final residual = 0, No Iterations 0
DILUPBiCGStab:  Solving for O2, Initial residual = 0.00868912, Final residual = 0.000134995, No Iterations 1
DILUPBiCGStab:  Solving for H2O, Initial residual = 0.275453, Final residual = 0.0120432, No Iterations 1
DILUPBiCGStab:  Solving for CH4, Initial residual = 0.00964827, Final residual = 0.000808221, No Iterations 1
DILUPBiCGStab:  Solving for CO2, Initial residual = 0.275453, Final residual = 0.0120432, No Iterations 1
DILUPBiCGStab:  Solving for h, Initial residual = 0.0121838, Final residual = 0.000546879, No Iterations 1
Min/max T:293 1995.3
DICPCG:  Solving for p, Initial residual = 0.0727379, Final residual = 7.80456e-07, No Iterations 51
diagonal:  Solving for rho, Initial residual = 0, Final residual = 0, No Iterations 0
time step continuity errors : sum local = 7.88668e-09, global = 1.05686e-10, cumulative = 1.05686e-10
ExecutionTime = 0.57 s  ClockTime = 0 s

Region: fluid Courant Number mean: 0.136797 max: 0.394364
deltaT = 0.00041301
Time = 0.00911198


Solving for fluid region fluid
diagonal:  Solving for rho, Initial residual = 0, Final residual = 0, No Iterations 0
DILUPBiCGStab:  Solving for O2, Initial residual = 0.00838247, Final residual = 0.000131412, No Iterations 1
DILUPBiCGStab:  Solving for H2O, Initial residual = 0.255796, Final residual = 0.0111272, No Iterations 1
DILUPBiCGStab:  Solving for CH4, Initial residual = 0.00932375, Final residual = 0.000781061, No Iterations 1
DILUPBiCGStab:  Solving for CO2, Initial residual = 0.255796, Final residual = 0.0111272, No Iterations 1
DILUPBiCGStab:  Solving for h, Initial residual = 0.0121066, Final residual = 0.000546852, No Iterations 1
Min/max T:293 1994.03
DICPCG:  Solving for p, Initial residual = 0.090411, Final residual = 8.44393e-07, No Iterations 50
diagonal:  Solving for rho, Initial residual = 0, Final residual = 0, No Iterations 0
time step continuity errors : sum local = 7.28228e-09, global = 1.70879e-10, cumulative = 1.70879e-10
ExecutionTime = 0.59 s  ClockTime = 0 s

Region: fluid Courant Number mean: 0.139455 max: 0.39585
deltaT = 0.000417225
Time = 0.0095292


Solving for fluid region fluid
diagonal:  Solving for rho, Initial residual = 0, Final residual = 0, No Iterations 0
DILUPBiCGStab:  Solving for O2, Initial residual = 0.00810311, Final residual = 0.000128189, No Iterations 1
DILUPBiCGStab:  Solving for H2O, Initial residual = 0.238306, Final residual = 0.0103215, No Iterations 1
DILUPBiCGStab:  Solving for CH4, Initial residual = 0.00902381, Final residual = 0.000756094, No Iterations 1
DILUPBiCGStab:  Solving for CO2, Initial residual = 0.238306, Final residual = 0.0103215, No Iterations 1
DILUPBiCGStab:  Solving for h, Initial residual = 0.0120501, Final residual = 0.000546828, No Iterations 1
Min/max T:293 1992.53
DICPCG:  Solving for p, Initial residual = 0.096296, Final residual = 7.78187e-07, No Iterations 49
diagonal:  Solving for rho, Initial residual = 0, Final residual = 0, No Iterations 0
time step continuity errors : sum local = 6.32298e-09, global = -2.99637e-10, cumulative = -2.99637e-10
ExecutionTime = 0.61 s  ClockTime = 0 s

Region: fluid Courant Number mean: 0.142026 max: 0.397593
deltaT = 0.000417225
Time = 0.00994643


Solving for fluid region fluid
diagonal:  Solving for rho, Initial residual = 0, Final residual = 0, No Iterations 0
DILUPBiCGStab:  Solving for O2, Initial residual = 0.00777061, Final residual = 0.000121768, No Iterations 1
DILUPBiCGStab:  Solving for H2O, Initial residual = 0.220987, Final residual = 0.00938061, No Iterations 1
DILUPBiCGStab:  Solving for CH4, Initial residual = 0.00866475, Final residual = 0.000719707, No Iterations 1
DILUPBiCGStab:  Solving for CO2, Initial residual = 0.220987, Final residual = 0.00938061, No Iterations 1
DILUPBiCGStab:  Solving for h, Initial residual = 0.0119349, Final residual = 0.000534074, No Iterations 1
Min/max T:293 1990.82
DICPCG:  Solving for p, Initial residual = 0.11634, Final residual = 8.90504e-07, No Iterations 51
diagonal:  Solving for rho, Initial residual = 0, Final residual = 0, No Iterations 0
time step continuity errors : sum local = 6.4221e-09, global = 1.37644e-10, cumulative = 1.37644e-10
ExecutionTime = 0.64 s  ClockTime = 1 s

Region: fluid Courant Number mean: 0.142774 max: 0.395015
deltaT = 0.000421617
Time = 0.010368


Solving for fluid region fluid
diagonal:  Solving for rho, Initial residual = 0, Final residual = 0, No Iterations 0
DILUPBiCGStab:  Solving for O2, Initial residual = 0.00753269, Final residual = 0.000119394, No Iterations 1
DILUPBiCGStab:  Solving for H2O, Initial residual = 0.206021, Final residual = 0.00873812, No Iterations 1
DILUPBiCGStab:  Solving for CH4, Initial residual = 0.00840826, Final residual = 0.000700355, No Iterations 1
DILUPBiCGStab:  Solving for CO2, Initial residual = 0.206021, Final residual = 0.00873812, No Iterations 1
DILUPBiCGStab:  Solving for h, Initial residual = 0.0117487, Final residual = 0.000522106, No Iterations 1
Min/max T:293 1988.85
DICPCG:  Solving for p, Initial residual = 0.0700294, Final residual = 7.61618e-07, No Iterations 54
diagonal:  Solving for rho, Initial residual = 0, Final residual = 0, No Iterations 0
time step continuity errors : sum local = 5.12274e-09, global = 3.9636e-10, cumulative = 3.9636e-10
ExecutionTime = 0.66 s  ClockTime = 1 s

Region: fluid Courant Number mean: 0.145547 max: 0.397359
deltaT = 0.000421617
Time = 0.0107897


Solving for fluid region fluid
diagonal:  Solving for rho, Initial residual = 0, Final residual = 0, No Iterations 0
DILUPBiCGStab:  Solving for O2, Initial residual = 0.00724872, Final residual = 0.000113841, No Iterations 1
DILUPBiCGStab:  Solving for H2O, Initial residual = 0.191192, Final residual = 0.0079766, No Iterations 1
DILUPBiCGStab:  Solving for CH4, Initial residual = 0.00809576, Final residual = 0.000668689, No Iterations 1
DILUPBiCGStab:  Solving for CO2, Initial residual = 0.191192, Final residual = 0.0079766, No Iterations 1
DILUPBiCGStab:  Solving for h, Initial residual = 0.0114586, Final residual = 0.00049707, No Iterations 1
Min/max T:293 1986.63
DICPCG:  Solving for p, Initial residual = 0.0369237, Final residual = 9.61972e-07, No Iterations 47
diagonal:  Solving for rho, Initial residual = 0, Final residual = 0, No Iterations 0
time step continuity errors : sum local = 5.92922e-09, global = -1.28827e-10, cumulative = -1.28827e-10
ExecutionTime = 0.69 s  ClockTime = 1 s

Region: fluid Courant Number mean: 0.14657 max: 0.39536
deltaT = 0.000426199
Time = 0.0112159


Solving for fluid region fluid
diagonal:  Solving for rho, Initial residual = 0, Final residual = 0, No Iterations 0
DILUPBiCGStab:  Solving for O2, Initial residual = 0.00705091, Final residual = 0.000112037, No Iterations 1
DILUPBiCGStab:  Solving for H2O, Initial residual = 0.178527, Final residual = 0.00746502, No Iterations 1
DILUPBiCGStab:  Solving for CH4, Initial residual = 0.00788105, Final residual = 0.000652711, No Iterations 1
DILUPBiCGStab:  Solving for CO2, Initial residual = 0.178527, Final residual = 0.00746502, No Iterations 1
DILUPBiCGStab:  Solving for h, Initial residual = 0.0112921, Final residual = 0.00048751, No Iterations 1
Min/max T:293 1984.14
DICPCG:  Solving for p, Initial residual = 0.0321729, Final residual = 8.77035e-07, No Iterations 47
diagonal:  Solving for rho, Initial residual = 0, Final residual = 0, No Iterations 0
time step continuity errors : sum local = 4.54086e-09, global = -1.35023e-10, cumulative = -1.35023e-10
ExecutionTime = 0.71 s  ClockTime = 1 s

Region: fluid Courant Number mean: 0.149266 max: 0.39779
deltaT = 0.000426199
Time = 0.0116421


Solving for fluid region fluid
diagonal:  Solving for rho, Initial residual = 0, Final residual = 0, No Iterations 0
DILUPBiCGStab:  Solving for O2, Initial residual = 0.00679683, Final residual = 0.000107065, No Iterations 1
DILUPBiCGStab:  Solving for H2O, Initial residual = 0.165809, Final residual = 0.00680274, No Iterations 1
DILUPBiCGStab:  Solving for CH4, Initial residual = 0.00760188, Final residual = 0.000625174, No Iterations 1
DILUPBiCGStab:  Solving for CO2, Initial residual = 0.165809, Final residual = 0.00680274, No Iterations 1
DILUPBiCGStab:  Solving for h, Initial residual = 0.0110248, Final residual = 0.000465537, No Iterations 1
Min/max T:293 1981.37
DICPCG:  Solving for p, Initial residual = 0.0233659, Final residual = 8.43292e-07, No Iterations 44
diagonal:  Solving for rho, Initial residual = 0, Final residual = 0, No Iterations 0
time step continuity errors : sum local = 4.43268e-09, global = -2.24523e-10, cumulative = -2.24523e-10
ExecutionTime = 0.74 s  ClockTime = 1 s

Region: fluid Courant Number mean: 0.150261 max: 0.395437
deltaT = 0.000430988
Time = 0.012073


Solving for fluid region fluid
diagonal:  Solving for rho, Initial residual = 0, Final residual = 0, No Iterations 0
DILUPBiCGStab:  Solving for O2, Initial residual = 0.00662713, Final residual = 0.000105777, No Iterations 1
DILUPBiCGStab:  Solving for H2O, Initial residual = 0.15487, Final residual = 0.00634338, No Iterations 1
DILUPBiCGStab:  Solving for CH4, Initial residual = 0.0074159, Final residual = 0.000612829, No Iterations 1
DILUPBiCGStab:  Solving for CO2, Initial residual = 0.15487, Final residual = 0.00634338, No Iterations 1
DILUPBiCGStab:  Solving for h, Initial residual = 0.0108781, Final residual = 0.000457842, No Iterations 1
Min/max T:293 1978.32
DICPCG:  Solving for p, Initial residual = 0.0236183, Final residual = 9.0202e-07, No Iterations 47
diagonal:  Solving for rho, Initial residual = 0, Final residual = 0, No Iterations 0
time step continuity errors : sum local = 4.31753e-09, global = -5.66603e-11, cumulative = -5.66603e-11
ExecutionTime = 0.77 s  ClockTime = 1 s

Region: fluid Courant Number mean: 0.152999 max: 0.397461
deltaT = 0.000430988
Time = 0.012504


Solving for fluid region fluid
diagonal:  Solving for rho, Initial residual = 0, Final residual = 0, No Iterations 0
DILUPBiCGStab:  Solving for O2, Initial residual = 0.00640072, Final residual = 0.000101278, No Iterations 1
DILUPBiCGStab:  Solving for H2O, Initial residual = 0.143489, Final residual = 0.00576944, No Iterations 1
DILUPBiCGStab:  Solving for CH4, Initial residual = 0.00716539, Final residual = 0.000587978, No Iterations 1
DILUPBiCGStab:  Solving for CO2, Initial residual = 0.143489, Final residual = 0.00576944, No Iterations 1
DILUPBiCGStab:  Solving for h, Initial residual = 0.0106228, Final residual = 0.00043801, No Iterations 1
Min/max T:293 1975.01
DICPCG:  Solving for p, Initial residual = 0.0183106, Final residual = 8.26855e-07, No Iterations 46
diagonal:  Solving for rho, Initial residual = 0, Final residual = 0, No Iterations 0
time step continuity errors : sum local = 4.01699e-09, global = 1.61318e-10, cumulative = 1.61318e-10
ExecutionTime = 0.79 s  ClockTime = 1 s

Region: fluid Courant Number mean: 0.153944 max: 0.395796
deltaT = 0.000430988
Time = 0.012935


Solving for fluid region fluid
diagonal:  Solving for rho, Initial residual = 0, Final residual = 0, No Iterations 0
DILUPBiCGStab:  Solving for O2, Initial residual = 0.0061872, Final residual = 9.70503e-05, No Iterations 1
DILUPBiCGStab:  Solving for H2O, Initial residual = 0.13245, Final residual = 0.00530087, No Iterations 1
DILUPBiCGStab:  Solving for CH4, Initial residual = 0.0069304, Final residual = 0.000564676, No Iterations 1
DILUPBiCGStab:  Solving for CO2, Initial residual = 0.13245, Final residual = 0.00530087, No Iterations 1
DILUPBiCGStab:  Solving for h, Initial residual = 0.0103756, Final residual = 0.000419454, No Iterations 1
Min/max T:293 1971.45
DICPCG:  Solving for p, Initial residual = 0.0182994, Final residual = 9.05937e-07, No Iterations 46
diagonal:  Solving for rho, Initial residual = 0, Final residual = 0, No Iterations 0
time step continuity errors : sum local = 3.92548e-09, global = 1.51504e-10, cumulative = 1.51504e-10
ExecutionTime = 0.82 s  ClockTime = 1 s

Region: fluid Courant Number mean: 0.154876 max: 0.394398
deltaT = 0.000436059
Time = 0.0133711


Solving for fluid region fluid
diagonal:  Solving for rho, Initial residual = 0, Final residual = 0, No Iterations 0
DILUPBiCGStab:  Solving for O2, Initial residual = 0.00605225, Final residual = 9.62124e-05, No Iterations 1
DILUPBiCGStab:  Solving for H2O, Initial residual = 0.122799, Final residual = 0.00499659, No Iterations 1
DILUPBiCGStab:  Solving for CH4, Initial residual = 0.00678172, Final residual = 0.000555777, No Iterations 1
DILUPBiCGStab:  Solving for CO2, Initial residual = 0.122799, Final residual = 0.00499659, No Iterations 1
DILUPBiCGStab:  Solving for h, Initial residual = 0.0102499, Final residual = 0.000414059, No Iterations 1
Min/max T:293 1967.62
DICPCG:  Solving for p, Initial residual = 0.0178986, Final residual = 9.46e-07, No Iterations 48
diagonal:  Solving for rho, Initial residual = 0, Final residual = 0, No Iterations 0
time step continuity errors : sum local = 3.93429e-09, global = -5.1608e-12, cumulative = -5.1608e-12
ExecutionTime = 0.85 s  ClockTime = 1 s

Region: fluid Courant Number mean: 0.15769 max: 0.397547
deltaT = 0.000436059
Time = 0.0138071


Solving for fluid region fluid
diagonal:  Solving for rho, Initial residual = 0, Final residual = 0, No Iterations 0
DILUPBiCGStab:  Solving for O2, Initial residual = 0.00585935, Final residual = 9.22829e-05, No Iterations 1
DILUPBiCGStab:  Solving for H2O, Initial residual = 0.112621, Final residual = 0.00457688, No Iterations 1
DILUPBiCGStab:  Solving for CH4, Initial residual = 0.00656828, Final residual = 0.000535256, No Iterations 1
DILUPBiCGStab:  Solving for CO2, Initial residual = 0.112621, Final residual = 0.00457688, No Iterations 1
DILUPBiCGStab:  Solving for h, Initial residual = 0.0100237, Final residual = 0.000397128, No Iterations 1
Min/max T:293 1963.58
DICPCG:  Solving for p, Initial residual = 0.0136647, Final residual = 8.31848e-07, No Iterations 46
diagonal:  Solving for rho, Initial residual = 0, Final residual = 0, No Iterations 0
time step continuity errors : sum local = 3.56929e-09, global = 1.15843e-10, cumulative = 1.15843e-10
ExecutionTime = 0.88 s  ClockTime = 1 s

Region: fluid Courant Number mean: 0.158584 max: 0.395627
deltaT = 0.000436059
Time = 0.0142432


Solving for fluid region fluid
diagonal:  Solving for rho, Initial residual = 0, Final residual = 0, No Iterations 0
DILUPBiCGStab:  Solving for O2, Initial residual = 0.00567569, Final residual = 8.85316e-05, No Iterations 1
DILUPBiCGStab:  Solving for H2O, Initial residual = 0.102516, Final residual = 0.00421162, No Iterations 1
DILUPBiCGStab:  Solving for CH4, Initial residual = 0.0063669, Final residual = 0.000515756, No Iterations 1
DILUPBiCGStab:  Solving for CO2, Initial residual = 0.102516, Final residual = 0.00421162, No Iterations 1
DILUPBiCGStab:  Solving for h, Initial residual = 0.00980206, Final residual = 0.000381224, No Iterations 1
Min/max T:293 1959.35
DICPCG:  Solving for p, Initial residual = 0.0138476, Final residual = 9.587e-07, No Iterations 49
diagonal:  Solving for rho, Initial residual = 0, Final residual = 0, No Iterations 0
time step continuity errors : sum local = 3.71178e-09, global = 1.71285e-11, cumulative = 1.71285e-11
ExecutionTime = 0.91 s  ClockTime = 1 s

Region: fluid Courant Number mean: 0.159469 max: 0.393524
deltaT = 0.000441442
Time = 0.0146846


Solving for fluid region fluid
diagonal:  Solving for rho, Initial residual = 0, Final residual = 0, No Iterations 0
DILUPBiCGStab:  Solving for O2, Initial residual = 0.00556557, Final residual = 8.79035e-05, No Iterations 1
DILUPBiCGStab:  Solving for H2O, Initial residual = 0.0934322, Final residual = 0.00398115, No Iterations 1
DILUPBiCGStab:  Solving for CH4, Initial residual = 0.00624701, Final residual = 0.000509109, No Iterations 1
DILUPBiCGStab:  Solving for CO2, Initial residual = 0.0934322, Final residual = 0.00398115, No Iterations 1
DILUPBiCGStab:  Solving for h, Initial residual = 0.00969196, Final residual = 0.000377488, No Iterations 1
Min/max T:293 1954.92
DICPCG:  Solving for p, Initial residual = 0.0134588, Final residual = 9.37658e-07, No Iterations 47
diagonal:  Solving for rho, Initial residual = 0, Final residual = 0, No Iterations 0
time step continuity errors : sum local = 3.52683e-09, global = -7.7753e-11, cumulative = -7.7753e-11
ExecutionTime = 0.94 s  ClockTime = 1 s

Region: fluid Courant Number mean: 0.162386 max: 0.396589
deltaT = 0.000441442
Time = 0.0151261


Solving for fluid region fluid
diagonal:  Solving for rho, Initial residual = 0, Final residual = 0, No Iterations 0
DILUPBiCGStab:  Solving for O2, Initial residual = 0.00539704, Final residual = 8.43331e-05, No Iterations 1
DILUPBiCGStab:  Solving for H2O, Initial residual = 0.0845356, Final residual = 0.00354868, No Iterations 1
DILUPBiCGStab:  Solving for CH4, Initial residual = 0.00606212, Final residual = 0.00049143, No Iterations 1
DILUPBiCGStab:  Solving for CO2, Initial residual = 0.0845356, Final residual = 0.00354868, No Iterations 1
DILUPBiCGStab:  Solving for h, Initial residual = 0.0094726, Final residual = 0.000362761, No Iterations 1
Min/max T:293 1950.39
DICPCG:  Solving for p, Initial residual = 0.0106154, Final residual = 9.95611e-07, No Iterations 46
diagonal:  Solving for rho, Initial residual = 0, Final residual = 0, No Iterations 0
time step continuity errors : sum local = 3.89388e-09, global = 6.08536e-11, cumulative = 6.08536e-11
ExecutionTime = 0.97 s  ClockTime = 1 s

Region: fluid Courant Number mean: 0.163237 max: 0.394671
deltaT = 0.000447102
Time = 0.0155732


Solving for fluid region fluid
diagonal:  Solving for rho, Initial residual = 0, Final residual = 0, No Iterations 0
DILUPBiCGStab:  Solving for O2, Initial residual = 0.00529885, Final residual = 8.3907e-05, No Iterations 1
DILUPBiCGStab:  Solving for H2O, Initial residual = 0.0767731, Final residual = 0.00331734, No Iterations 1
DILUPBiCGStab:  Solving for CH4, Initial residual = 0.00595694, Final residual = 0.000486825, No Iterations 1
DILUPBiCGStab:  Solving for CO2, Initial residual = 0.0767731, Final residual = 0.00331734, No Iterations 1
DILUPBiCGStab:  Solving for h, Initial residual = 0.0093669, Final residual = 0.000360039, No Iterations 1
Min/max T:293 1945.69
DICPCG:  Solving for p, Initial residual = 0.0117357, Final residual = 8.77893e-07, No Iterations 50
diagonal:  Solving for rho, Initial residual = 0, Final residual = 0, No Iterations 0
time step continuity errors : sum local = 3.18935e-09, global = -1.2602e-10, cumulative = -1.2602e-10
ExecutionTime = 1 s  ClockTime = 1 s

Region: fluid Courant Number mean: 0.166252 max: 0.397992
deltaT = 0.000447102
Time = 0.0160203


Solving for fluid region fluid
diagonal:  Solving for rho, Initial residual = 0, Final residual = 0, No Iterations 0
DILUPBiCGStab:  Solving for O2, Initial residual = 0.00514315, Final residual = 8.05028e-05, No Iterations 1
DILUPBiCGStab:  Solving for H2O, Initial residual = 0.0693516, Final residual = 0.00302365, No Iterations 1
DILUPBiCGStab:  Solving for CH4, Initial residual = 0.00578651, Final residual = 0.000470511, No Iterations 1
DILUPBiCGStab:  Solving for CO2, Initial residual = 0.0693516, Final residual = 0.00302365, No Iterations 1
DILUPBiCGStab:  Solving for h, Initial residual = 0.00915783, Final residual = 0.000346297, No Iterations 1
Min/max T:293 1940.89
DICPCG:  Solving for p, Initial residual = 0.00903033, Final residual = 8.896e-07, No Iterations 49
diagonal:  Solving for rho, Initial residual = 0, Final residual = 0, No Iterations 0
time step continuity errors : sum local = 3.37908e-09, global = 7.68633e-11, cumulative = 7.68633e-11
ExecutionTime = 1.03 s  ClockTime = 1 s

Region: fluid Courant Number mean: 0.167045 max: 0.396458
deltaT = 0.000447102
Time = 0.0164674


Solving for fluid region fluid
diagonal:  Solving for rho, Initial residual = 0, Final residual = 0, No Iterations 0
DILUPBiCGStab:  Solving for O2, Initial residual = 0.00499413, Final residual = 7.72501e-05, No Iterations 1
DILUPBiCGStab:  Solving for H2O, Initial residual = 0.0626746, Final residual = 0.00277389, No Iterations 1
DILUPBiCGStab:  Solving for CH4, Initial residual = 0.00562486, Final residual = 0.000454928, No Iterations 1
DILUPBiCGStab:  Solving for CO2, Initial residual = 0.0626746, Final residual = 0.00277389, No Iterations 1
DILUPBiCGStab:  Solving for h, Initial residual = 0.00895656, Final residual = 0.000333358, No Iterations 1
Min/max T:293 1935.98
DICPCG:  Solving for p, Initial residual = 0.00913654, Final residual = 6.92496e-07, No Iterations 51
diagonal:  Solving for rho, Initial residual = 0, Final residual = 0, No Iterations 0
time step continuity errors : sum local = 2.37867e-09, global = 3.31319e-11, cumulative = 3.31319e-11
ExecutionTime = 1.06 s  ClockTime = 1 s

Region: fluid Courant Number mean: 0.16781 max: 0.395042
deltaT = 0.000447102
Time = 0.0169145


Solving for fluid region fluid
diagonal:  Solving for rho, Initial residual = 0, Final residual = 0, No Iterations 0
DILUPBiCGStab:  Solving for O2, Initial residual = 0.00485286, Final residual = 7.41961e-05, No Iterations 1
DILUPBiCGStab:  Solving for H2O, Initial residual = 0.056889, Final residual = 0.00252896, No Iterations 1
DILUPBiCGStab:  Solving for CH4, Initial residual = 0.00547129, Final residual = 0.000440335, No Iterations 1
DILUPBiCGStab:  Solving for CO2, Initial residual = 0.056889, Final residual = 0.00252896, No Iterations 1
DILUPBiCGStab:  Solving for h, Initial residual = 0.00876106, Final residual = 0.000321269, No Iterations 1
Min/max T:293 1930.97
DICPCG:  Solving for p, Initial residual = 0.00860805, Final residual = 8.10832e-07, No Iterations 47
diagonal:  Solving for rho, Initial residual = 0, Final residual = 0, No Iterations 0
time step continuity errors : sum local = 2.67382e-09, global = -8.60393e-11, cumulative = -8.60393e-11
ExecutionTime = 1.1 s  ClockTime = 1 s

Region: fluid Courant Number mean: 0.168544 max: 0.393753
deltaT = 0.000453226
Time = 0.0173677


Solving for fluid region fluid
diagonal:  Solving for rho, Initial residual = 0, Final residual = 0, No Iterations 0
DILUPBiCGStab:  Solving for O2, Initial residual = 0.00477976, Final residual = 7.40896e-05, No Iterations 1
DILUPBiCGStab:  Solving for H2O, Initial residual = 0.0517968, Final residual = 0.00256317, No Iterations 1
DILUPBiCGStab:  Solving for CH4, Initial residual = 0.00539304, Final residual = 0.000438266, No Iterations 1
DILUPBiCGStab:  Solving for CO2, Initial residual = 0.0517968, Final residual = 0.00256317, No Iterations 1
DILUPBiCGStab:  Solving for h, Initial residual = 0.00867881, Final residual = 0.00032044, No Iterations 1
Min/max T:293 1925.74
DICPCG:  Solving for p, Initial residual = 0.00912667, Final residual = 7.77252e-07, No Iterations 47
diagonal:  Solving for rho, Initial residual = 0, Final residual = 0, No Iterations 0
time step continuity errors : sum local = 2.52961e-09, global = -1.52818e-10, cumulative = -1.52818e-10
ExecutionTime = 1.13 s  ClockTime = 1 s

Region: fluid Courant Number mean: 0.171654 max: 0.397857
deltaT = 0.000453226
Time = 0.0178209


Solving for fluid region fluid
diagonal:  Solving for rho, Initial residual = 0, Final residual = 0, No Iterations 0
DILUPBiCGStab:  Solving for O2, Initial residual = 0.00464858, Final residual = 7.1055e-05, No Iterations 1
DILUPBiCGStab:  Solving for H2O, Initial residual = 0.0478374, Final residual = 0.00224795, No Iterations 1
DILUPBiCGStab:  Solving for CH4, Initial residual = 0.00525002, Final residual = 0.000424847, No Iterations 1
DILUPBiCGStab:  Solving for CO2, Initial residual = 0.0478374, Final residual = 0.00224795, No Iterations 1
DILUPBiCGStab:  Solving for h, Initial residual = 0.00848762, Final residual = 0.000308837, No Iterations 1
Min/max T:293 1920.45
DICPCG:  Solving for p, Initial residual = 0.00736945, Final residual = 8.30727e-07, No Iterations 47
diagonal:  Solving for rho, Initial residual = 0, Final residual = 0, No Iterations 0
time step continuity errors : sum local = 2.83114e-09, global = -1.37884e-10, cumulative = -1.37884e-10
ExecutionTime = 1.16 s  ClockTime = 1 s

Region: fluid Courant Number mean: 0.172336 max: 0.396199
deltaT = 0.000453226
Time = 0.0182742


Solving for fluid region fluid
diagonal:  Solving for rho, Initial residual = 0, Final residual = 0, No Iterations 0
DILUPBiCGStab:  Solving for O2, Initial residual = 0.00452212, Final residual = 6.81883e-05, No Iterations 1
DILUPBiCGStab:  Solving for H2O, Initial residual = 0.0443499, Final residual = 0.00208163, No Iterations 1
DILUPBiCGStab:  Solving for CH4, Initial residual = 0.00511377, Final residual = 0.000412028, No Iterations 1
DILUPBiCGStab:  Solving for CO2, Initial residual = 0.0443499, Final residual = 0.00208163, No Iterations 1
DILUPBiCGStab:  Solving for h, Initial residual = 0.00830175, Final residual = 0.000297849, No Iterations 1
Min/max T:293 1915.08
DICPCG:  Solving for p, Initial residual = 0.00686044, Final residual = 8.8602e-07, No Iterations 46
diagonal:  Solving for rho, Initial residual = 0, Final residual = 0, No Iterations 0
time step continuity errors : sum local = 2.74061e-09, global = 2.5945e-12, cumulative = 2.5945e-12
ExecutionTime = 1.2 s  ClockTime = 1 s

Region: fluid Courant Number mean: 0.173002 max: 0.394986
deltaT = 0.000453226
Time = 0.0187274


Solving for fluid region fluid
diagonal:  Solving for rho, Initial residual = 0, Final residual = 0, No Iterations 0
DILUPBiCGStab:  Solving for O2, Initial residual = 0.00440137, Final residual = 6.55132e-05, No Iterations 1
DILUPBiCGStab:  Solving for H2O, Initial residual = 0.0412984, Final residual = 0.0019131, No Iterations 1
DILUPBiCGStab:  Solving for CH4, Initial residual = 0.00498378, Final residual = 0.000399868, No Iterations 1
DILUPBiCGStab:  Solving for CO2, Initial residual = 0.0412984, Final residual = 0.0019131, No Iterations 1
DILUPBiCGStab:  Solving for h, Initial residual = 0.00812063, Final residual = 0.000287446, No Iterations 1
Min/max T:293 1909.73
DICPCG:  Solving for p, Initial residual = 0.00666181, Final residual = 9.52405e-07, No Iterations 45
diagonal:  Solving for rho, Initial residual = 0, Final residual = 0, No Iterations 0
time step continuity errors : sum local = 2.84791e-09, global = 5.2304e-11, cumulative = 5.2304e-11
ExecutionTime = 1.23 s  ClockTime = 1 s

Region: fluid Courant Number mean: 0.173651 max: 0.393777
deltaT = 0.000459891
Time = 0.0191873


Solving for fluid region fluid
diagonal:  Solving for rho, Initial residual = 0, Final residual = 0, No Iterations 0
DILUPBiCGStab:  Solving for O2, Initial residual = 0.00434571, Final residual = 6.56602e-05, No Iterations 1
DILUPBiCGStab:  Solving for H2O, Initial residual = 0.0389125, Final residual = 0.00186869, No Iterations 1
DILUPBiCGStab:  Solving for CH4, Initial residual = 0.00492629, Final residual = 0.000399605, No Iterations 1
DILUPBiCGStab:  Solving for CO2, Initial residual = 0.0389125, Final residual = 0.00186869, No Iterations 1
DILUPBiCGStab:  Solving for h, Initial residual = 0.00805341, Final residual = 0.00028766, No Iterations 1
Min/max T:293 1904.32
DICPCG:  Solving for p, Initial residual = 0.00764565, Final residual = 8.97605e-07, No Iterations 47
diagonal:  Solving for rho, Initial residual = 0, Final residual = 0, No Iterations 0
time step continuity errors : sum local = 2.67633e-09, global = -1.9237e-10, cumulative = -1.9237e-10
ExecutionTime = 1.27 s  ClockTime = 1 s

Region: fluid Courant Number mean: 0.176922 max: 0.39838
deltaT = 0.000459891
Time = 0.0196472


Solving for fluid region fluid
diagonal:  Solving for rho, Initial residual = 0, Final residual = 0, No Iterations 0
DILUPBiCGStab:  Solving for O2, Initial residual = 0.0042327, Final residual = 6.30826e-05, No Iterations 1
DILUPBiCGStab:  Solving for H2O, Initial residual = 0.0367191, Final residual = 0.0017761, No Iterations 1
DILUPBiCGStab:  Solving for CH4, Initial residual = 0.00480388, Final residual = 0.000388394, No Iterations 1
DILUPBiCGStab:  Solving for CO2, Initial residual = 0.0367191, Final residual = 0.0017761, No Iterations 1
DILUPBiCGStab:  Solving for h, Initial residual = 0.00787725, Final residual = 0.000277325, No Iterations 1
Min/max T:293 1898.89
DICPCG:  Solving for p, Initial residual = 0.00623222, Final residual = 8.92285e-07, No Iterations 50
diagonal:  Solving for rho, Initial residual = 0, Final residual = 0, No Iterations 0
time step continuity errors : sum local = 2.81974e-09, global = -4.58144e-11, cumulative = -4.58144e-11
ExecutionTime = 1.3 s  ClockTime = 1 s

Region: fluid Courant Number mean: 0.177527 max: 0.39682
deltaT = 0.000459891
Time = 0.0201071


Solving for fluid region fluid
diagonal:  Solving for rho, Initial residual = 0, Final residual = 0, No Iterations 0
DILUPBiCGStab:  Solving for O2, Initial residual = 0.00412291, Final residual = 6.06396e-05, No Iterations 1
DILUPBiCGStab:  Solving for H2O, Initial residual = 0.0346906, Final residual = 0.00169656, No Iterations 1
DILUPBiCGStab:  Solving for CH4, Initial residual = 0.00468688, Final residual = 0.00037764, No Iterations 1
DILUPBiCGStab:  Solving for CO2, Initial residual = 0.0346906, Final residual = 0.00169656, No Iterations 1
DILUPBiCGStab:  Solving for h, Initial residual = 0.00770556, Final residual = 0.000267502, No Iterations 1
Min/max T:293 1893.43
DICPCG:  Solving for p, Initial residual = 0.0053936, Final residual = 9.52201e-07, No Iterations 43
diagonal:  Solving for rho, Initial residual = 0, Final residual = 0, No Iterations 0
time step continuity errors : sum local = 2.7381e-09, global = 1.43189e-11, cumulative = 1.43189e-11
ExecutionTime = 1.34 s  ClockTime = 1 s

Region: fluid Courant Number mean: 0.17813 max: 0.395143
deltaT = 0.000459891
Time = 0.020567


Solving for fluid region fluid
diagonal:  Solving for rho, Initial residual = 0, Final residual = 0, No Iterations 0
DILUPBiCGStab:  Solving for O2, Initial residual = 0.00401869, Final residual = 5.84692e-05, No Iterations 1
DILUPBiCGStab:  Solving for H2O, Initial residual = 0.0321552, Final residual = 0.00192445, No Iterations 1
DILUPBiCGStab:  Solving for CH4, Initial residual = 0.00457501, Final residual = 0.000367346, No Iterations 1
DILUPBiCGStab:  Solving for CO2, Initial residual = 0.0321552, Final residual = 0.00192445, No Iterations 1
DILUPBiCGStab:  Solving for h, Initial residual = 0.00754252, Final residual = 0.000258368, No Iterations 1
Min/max T:293 1887.66
DICPCG:  Solving for p, Initial residual = 0.00579741, Final residual = 7.89188e-07, No Iterations 53
diagonal:  Solving for rho, Initial residual = 0, Final residual = 0, No Iterations 0
time step continuity errors : sum local = 2.22759e-09, global = 3.05817e-11, cumulative = 3.05817e-11
ExecutionTime = 1.38 s  ClockTime = 1 s

Region: fluid Courant Number mean: 0.178732 max: 0.394302
deltaT = 0.000459891
Time = 0.0210268


Solving for fluid region fluid
diagonal:  Solving for rho, Initial residual = 0, Final residual = 0, No Iterations 0
DILUPBiCGStab:  Solving for O2, Initial residual = 0.00391668, Final residual = 5.6151e-05, No Iterations 1
DILUPBiCGStab:  Solving for H2O, Initial residual = 0.0308858, Final residual = 0.00165723, No Iterations 1
DILUPBiCGStab:  Solving for CH4, Initial residual = 0.00446811, Final residual = 0.000357608, No Iterations 1
DILUPBiCGStab:  Solving for CO2, Initial residual = 0.0308858, Final residual = 0.00165723, No Iterations 1
DILUPBiCGStab:  Solving for h, Initial residual = 0.0073798, Final residual = 0.000248891, No Iterations 1
Min/max T:293 1882.04
DICPCG:  Solving for p, Initial residual = 0.00630231, Final residual = 8.78846e-07, No Iterations 42
diagonal:  Solving for rho, Initial residual = 0, Final residual = 0, No Iterations 0
time step continuity errors : sum local = 2.3389e-09, global = 4.90431e-11, cumulative = 4.90431e-11
ExecutionTime = 1.41 s  ClockTime = 1 s

Region: fluid Courant Number mean: 0.179286 max: 0.393429
deltaT = 0.000467309
Time = 0.0214942


Solving for fluid region fluid
diagonal:  Solving for rho, Initial residual = 0, Final residual = 0, No Iterations 0
DILUPBiCGStab:  Solving for O2, Initial residual = 0.00387748, Final residual = 5.65014e-05, No Iterations 1
DILUPBiCGStab:  Solving for H2O, Initial residual = 0.0297394, Final residual = 0.00156103, No Iterations 1
DILUPBiCGStab:  Solving for CH4, Initial residual = 0.00443116, Final residual = 0.000359423, No Iterations 1
DILUPBiCGStab:  Solving for CO2, Initial residual = 0.0297394, Final residual = 0.00156103, No Iterations 1
DILUPBiCGStab:  Solving for h, Initial residual = 0.00732835, Final residual = 0.000249834, No Iterations 1
Min/max T:293 1876.31
DICPCG:  Solving for p, Initial residual = 0.00687927, Final residual = 9.31744e-07, No Iterations 52
diagonal:  Solving for rho, Initial residual = 0, Final residual = 0, No Iterations 0
time step continuity errors : sum local = 2.5355e-09, global = 3.54082e-11, cumulative = 3.54082e-11
ExecutionTime = 1.45 s  ClockTime = 1 s

Region: fluid Courant Number mean: 0.182826 max: 0.398915
deltaT = 0.000467309
Time = 0.0219615


Solving for fluid region fluid
diagonal:  Solving for rho, Initial residual = 0, Final residual = 0, No Iterations 0
DILUPBiCGStab:  Solving for O2, Initial residual = 0.00378173, Final residual = 5.44177e-05, No Iterations 1
DILUPBiCGStab:  Solving for H2O, Initial residual = 0.0286691, Final residual = 0.001441, No Iterations 1
DILUPBiCGStab:  Solving for CH4, Initial residual = 0.00432877, Final residual = 0.000350189, No Iterations 1
DILUPBiCGStab:  Solving for CO2, Initial residual = 0.0286691, Final residual = 0.001441, No Iterations 1
DILUPBiCGStab:  Solving for h, Initial residual = 0.00716471, Final residual = 0.000240527, No Iterations 1
Min/max T:293 1870.67
DICPCG:  Solving for p, Initial residual = 0.00553029, Final residual = 8.6275e-07, No Iterations 50
diagonal:  Solving for rho, Initial residual = 0, Final residual = 0, No Iterations 0
time step continuity errors : sum local = 2.53429e-09, global = -3.33342e-11, cumulative = -3.33342e-11
ExecutionTime = 1.48 s  ClockTime = 1 s

Region: fluid Courant Number mean: 0.183362 max: 0.397865
deltaT = 0.000467309
Time = 0.0224288


Solving for fluid region fluid
diagonal:  Solving for rho, Initial residual = 0, Final residual = 0, No Iterations 0
DILUPBiCGStab:  Solving for O2, Initial residual = 0.00368772, Final residual = 5.2352e-05, No Iterations 1
DILUPBiCGStab:  Solving for H2O, Initial residual = 0.0275502, Final residual = 0.00138485, No Iterations 1
DILUPBiCGStab:  Solving for CH4, Initial residual = 0.00423034, Final residual = 0.000341247, No Iterations 1
DILUPBiCGStab:  Solving for CO2, Initial residual = 0.0275502, Final residual = 0.00138485, No Iterations 1
DILUPBiCGStab:  Solving for h, Initial residual = 0.00700506, Final residual = 0.000231562, No Iterations 1
Min/max T:293 1865.23
DICPCG:  Solving for p, Initial residual = 0.0041253, Final residual = 9.97436e-07, No Iterations 48
diagonal:  Solving for rho, Initial residual = 0, Final residual = 0, No Iterations 0
time step continuity errors : sum local = 2.70279e-09, global = -1.90054e-11, cumulative = -1.90054e-11
ExecutionTime = 1.52 s  ClockTime = 1 s

Region: fluid Courant Number mean: 0.183906 max: 0.39699
deltaT = 0.000467309
Time = 0.0228961


Solving for fluid region fluid
diagonal:  Solving for rho, Initial residual = 0, Final residual = 0, No Iterations 0
DILUPBiCGStab:  Solving for O2, Initial residual = 0.00359736, Final residual = 5.05145e-05, No Iterations 1
DILUPBiCGStab:  Solving for H2O, Initial residual = 0.0264972, Final residual = 0.00133744, No Iterations 1
DILUPBiCGStab:  Solving for CH4, Initial residual = 0.0041358, Final residual = 0.000332702, No Iterations 1
DILUPBiCGStab:  Solving for CO2, Initial residual = 0.0264972, Final residual = 0.00133744, No Iterations 1
DILUPBiCGStab:  Solving for h, Initial residual = 0.00685031, Final residual = 0.000222972, No Iterations 1
Min/max T:293 1859.83
DICPCG:  Solving for p, Initial residual = 0.00424675, Final residual = 8.88059e-07, No Iterations 47
diagonal:  Solving for rho, Initial residual = 0, Final residual = 0, No Iterations 0
time step continuity errors : sum local = 2.37322e-09, global = -7.81181e-11, cumulative = -7.81181e-11
ExecutionTime = 1.56 s  ClockTime = 1 s

Region: fluid Courant Number mean: 0.184438 max: 0.395975
deltaT = 0.000467309
Time = 0.0233634


Solving for fluid region fluid
diagonal:  Solving for rho, Initial residual = 0, Final residual = 0, No Iterations 0
DILUPBiCGStab:  Solving for O2, Initial residual = 0.00351009, Final residual = 0.00034835, No Iterations 1
DILUPBiCGStab:  Solving for H2O, Initial residual = 0.0255204, Final residual = 0.0012969, No Iterations 1
DILUPBiCGStab:  Solving for CH4, Initial residual = 0.00404482, Final residual = 0.00032469, No Iterations 1
DILUPBiCGStab:  Solving for CO2, Initial residual = 0.0255204, Final residual = 0.0012969, No Iterations 1
DILUPBiCGStab:  Solving for h, Initial residual = 0.00669922, Final residual = 0.00021447, No Iterations 1
Min/max T:293 1854.45
DICPCG:  Solving for p, Initial residual = 0.00527779, Final residual = 9.94822e-07, No Iterations 52
diagonal:  Solving for rho, Initial residual = 0, Final residual = 0, No Iterations 0
time step continuity errors : sum local = 2.6159e-09, global = 4.1186e-11, cumulative = 4.1186e-11
ExecutionTime = 1.6 s  ClockTime = 1 s

Region: fluid Courant Number mean: 0.184947 max: 0.394777
deltaT = 0.000467309
Time = 0.0238307


Solving for fluid region fluid
diagonal:  Solving for rho, Initial residual = 0, Final residual = 0, No Iterations 0
DILUPBiCGStab:  Solving for O2, Initial residual = 0.00342369, Final residual = 0.000337265, No Iterations 1
DILUPBiCGStab:  Solving for H2O, Initial residual = 0.0245209, Final residual = 0.00124643, No Iterations 1
DILUPBiCGStab:  Solving for CH4, Initial residual = 0.00395721, Final residual = 0.000317014, No Iterations 1
DILUPBiCGStab:  Solving for CO2, Initial residual = 0.0245209, Final residual = 0.00124643, No Iterations 1
DILUPBiCGStab:  Solving for h, Initial residual = 0.00655149, Final residual = 0.000206413, No Iterations 1
Min/max T:293 1849.07
DICPCG:  Solving for p, Initial residual = 0.00485458, Final residual = 8.00614e-07, No Iterations 51
diagonal:  Solving for rho, Initial residual = 0, Final residual = 0, No Iterations 0
time step continuity errors : sum local = 2.09999e-09, global = -5.99769e-11, cumulative = -5.99769e-11
ExecutionTime = 1.64 s  ClockTime = 2 s

Region: fluid Courant Number mean: 0.185484 max: 0.393613
deltaT = 0.000467309
Time = 0.024298


Solving for fluid region fluid
diagonal:  Solving for rho, Initial residual = 0, Final residual = 0, No Iterations 0
DILUPBiCGStab:  Solving for O2, Initial residual = 0.00334271, Final residual = 0.000327194, No Iterations 1
DILUPBiCGStab:  Solving for H2O, Initial residual = 0.0233282, Final residual = 0.00132359, No Iterations 1
DILUPBiCGStab:  Solving for CH4, Initial residual = 0.00387305, Final residual = 0.000309476, No Iterations 1
DILUPBiCGStab:  Solving for CO2, Initial residual = 0.0233282, Final residual = 0.00132359, No Iterations 1
DILUPBiCGStab:  Solving for h, Initial residual = 0.00641326, Final residual = 0.000199277, No Iterations 1
Min/max T:293 1843.47
DICPCG:  Solving for p, Initial residual = 0.00471568, Final residual = 5.54982e-07, No Iterations 54
diagonal:  Solving for rho, Initial residual = 0, Final residual = 0, No Iterations 0
time step continuity errors : sum local = 1.44148e-09, global = -6.9306e-11, cumulative = -6.9306e-11
ExecutionTime = 1.68 s  ClockTime = 2 s

Region: fluid Courant Number mean: 0.186005 max: 0.393201
deltaT = 0.000467309
Time = 0.0247653


Solving for fluid region fluid
diagonal:  Solving for rho, Initial residual = 0, Final residual = 0, No Iterations 0
DILUPBiCGStab:  Solving for O2, Initial residual = 0.00326269, Final residual = 0.000316872, No Iterations 1
DILUPBiCGStab:  Solving for H2O, Initial residual = 0.0225787, Final residual = 0.00127086, No Iterations 1
DILUPBiCGStab:  Solving for CH4, Initial residual = 0.00379227, Final residual = 0.000301997, No Iterations 1
DILUPBiCGStab:  Solving for CO2, Initial residual = 0.0225787, Final residual = 0.00127086, No Iterations 1
DILUPBiCGStab:  Solving for h, Initial residual = 0.00627671, Final residual = 0.000191802, No Iterations 1
Min/max T:293 1838.05
DICPCG:  Solving for p, Initial residual = 0.00543208, Final residual = 8.39149e-07, No Iterations 55
diagonal:  Solving for rho, Initial residual = 0, Final residual = 0, No Iterations 0
time step continuity errors : sum local = 2.03087e-09, global = 7.7002e-11, cumulative = 7.7002e-11
ExecutionTime = 1.71 s  ClockTime = 2 s

Region: fluid Courant Number mean: 0.186486 max: 0.392633
deltaT = 0.000476126
Time = 0.0252414


Solving for fluid region fluid
diagonal:  Solving for rho, Initial residual = 0, Final residual = 0, No Iterations 0
DILUPBiCGStab:  Solving for O2, Initial residual = 0.00324137, Final residual = 0.000318945, No Iterations 1
DILUPBiCGStab:  Solving for H2O, Initial residual = 0.0220471, Final residual = 0.00123363, No Iterations 1
DILUPBiCGStab:  Solving for CH4, Initial residual = 0.00378003, Final residual = 0.000305783, No Iterations 1
DILUPBiCGStab:  Solving for CO2, Initial residual = 0.0220471, Final residual = 0.00123363, No Iterations 1
DILUPBiCGStab:  Solving for h, Initial residual = 0.00625421, Final residual = 0.000194139, No Iterations 1
Min/max T:293 1832.48
DICPCG:  Solving for p, Initial residual = 0.00697907, Final residual = 8.52536e-07, No Iterations 54
diagonal:  Solving for rho, Initial residual = 0, Final residual = 0, No Iterations 0
time step continuity errors : sum local = 2.10472e-09, global = -3.74322e-11, cumulative = -3.74322e-11
ExecutionTime = 1.75 s  ClockTime = 2 s

Region: fluid Courant Number mean: 0.190587 max: 0.399581
deltaT = 0.000476126
Time = 0.0257176


Solving for fluid region fluid
diagonal:  Solving for rho, Initial residual = 0, Final residual = 0, No Iterations 0
DILUPBiCGStab:  Solving for O2, Initial residual = 0.00316518, Final residual = 0.000309961, No Iterations 1
DILUPBiCGStab:  Solving for H2O, Initial residual = 0.0215561, Final residual = 0.00121295, No Iterations 1
DILUPBiCGStab:  Solving for CH4, Initial residual = 0.00370109, Final residual = 0.000298395, No Iterations 1
DILUPBiCGStab:  Solving for CO2, Initial residual = 0.0215561, Final residual = 0.00121295, No Iterations 1
DILUPBiCGStab:  Solving for h, Initial residual = 0.00611909, Final residual = 0.000186778, No Iterations 1
Min/max T:293 1827.2
DICPCG:  Solving for p, Initial residual = 0.00592439, Final residual = 9.43614e-07, No Iterations 48
diagonal:  Solving for rho, Initial residual = 0, Final residual = 0, No Iterations 0
time step continuity errors : sum local = 2.51349e-09, global = -3.47143e-11, cumulative = -3.47143e-11
ExecutionTime = 1.79 s  ClockTime = 2 s

Region: fluid Courant Number mean: 0.19105 max: 0.398806
deltaT = 0.000476126
Time = 0.0261937


Solving for fluid region fluid
diagonal:  Solving for rho, Initial residual = 0, Final residual = 0, No Iterations 0
DILUPBiCGStab:  Solving for O2, Initial residual = 0.0030889, Final residual = 0.000300763, No Iterations 1
DILUPBiCGStab:  Solving for H2O, Initial residual = 0.020937, Final residual = 0.00117284, No Iterations 1
DILUPBiCGStab:  Solving for CH4, Initial residual = 0.00362451, Final residual = 0.00029122, No Iterations 1
DILUPBiCGStab:  Solving for CO2, Initial residual = 0.020937, Final residual = 0.00117284, No Iterations 1
DILUPBiCGStab:  Solving for h, Initial residual = 0.00598922, Final residual = 0.000179964, No Iterations 1
Min/max T:293 1822.06
DICPCG:  Solving for p, Initial residual = 0.00393879, Final residual = 8.1266e-07, No Iterations 50
diagonal:  Solving for rho, Initial residual = 0, Final residual = 0, No Iterations 0
time step continuity errors : sum local = 2.05454e-09, global = -5.79384e-12, cumulative = -5.79384e-12
ExecutionTime = 1.83 s  ClockTime = 2 s

Region: fluid Courant Number mean: 0.191541 max: 0.397956
deltaT = 0.000476126
Time = 0.0266698


Solving for fluid region fluid
diagonal:  Solving for rho, Initial residual = 0, Final residual = 0, No Iterations 0
[...]
DILUPBiCGStab:  Solving for H2O, Initial residual = 0.00740041, Final residual = 0.00046519, No Iterations 1
DILUPBiCGStab:  Solving for CH4, Initial residual = 0.00171156, Final residual = 0.000126136, No Iterations 1
DILUPBiCGStab:  Solving for CO2, Initial residual = 0.00740041, Final residual = 0.00046519, No Iterations 1
DILUPBiCGStab:  Solving for h, Initial residual = 0.00280339, Final residual = 4.64996e-05, No Iterations 1
Min/max T:293 1703.91
DICPCG:  Solving for p, Initial residual = 0.0023429, Final residual = 6.65181e-07, No Iterations 55
diagonal:  Solving for rho, Initial residual = 0, Final residual = 0, No Iterations 0
time step continuity errors : sum local = 1.55847e-09, global = -1.09897e-10, cumulative = -1.09897e-10
ExecutionTime = 3.58 s  ClockTime = 3 s

Region: fluid Courant Number mean: 0.212647 max: 0.386193
deltaT = 0.000476126
Time = 0.0476194


Solving for fluid region fluid
diagonal:  Solving for rho, Initial residual = 0, Final residual = 0, No Iterations 0
DILUPBiCGStab:  Solving for O2, Initial residual = 0.00111455, Final residual = 8.33301e-05, No Iterations 1
DILUPBiCGStab:  Solving for H2O, Initial residual = 0.00726081, Final residual = 0.000460508, No Iterations 1
DILUPBiCGStab:  Solving for CH4, Initial residual = 0.00168633, Final residual = 0.000124349, No Iterations 1
DILUPBiCGStab:  Solving for CO2, Initial residual = 0.00726081, Final residual = 0.000460508, No Iterations 1
DILUPBiCGStab:  Solving for h, Initial residual = 0.00276253, Final residual = 4.59997e-05, No Iterations 1
Min/max T:293 1703.58
DICPCG:  Solving for p, Initial residual = 0.00237177, Final residual = 8.49465e-07, No Iterations 53
diagonal:  Solving for rho, Initial residual = 0, Final residual = 0, No Iterations 0
time step continuity errors : sum local = 1.94014e-09, global = 1.34333e-11, cumulative = 1.34333e-11
ExecutionTime = 3.62 s  ClockTime = 3 s

Region: fluid Courant Number mean: 0.213165 max: 0.386245
deltaT = 0.000476126
Time = 0.0480955


Solving for fluid region fluid
diagonal:  Solving for rho, Initial residual = 0, Final residual = 0, No Iterations 0
DILUPBiCGStab:  Solving for O2, Initial residual = 0.00108982, Final residual = 8.11226e-05, No Iterations 1
DILUPBiCGStab:  Solving for H2O, Initial residual = 0.00712962, Final residual = 0.000455787, No Iterations 1
DILUPBiCGStab:  Solving for CH4, Initial residual = 0.00166143, Final residual = 0.00012245, No Iterations 1
DILUPBiCGStab:  Solving for CO2, Initial residual = 0.00712962, Final residual = 0.000455787, No Iterations 1
DILUPBiCGStab:  Solving for h, Initial residual = 0.00272284, Final residual = 4.56097e-05, No Iterations 1
Min/max T:293 1703.32
DICPCG:  Solving for p, Initial residual = 0.001915, Final residual = 9.92962e-07, No Iterations 46
diagonal:  Solving for rho, Initial residual = 0, Final residual = 0, No Iterations 0
time step continuity errors : sum local = 2.26124e-09, global = -2.86976e-11, cumulative = -2.86976e-11
ExecutionTime = 3.66 s  ClockTime = 4 s

Region: fluid Courant Number mean: 0.213691 max: 0.386273
deltaT = 0.000476126
Time = 0.0485716


Solving for fluid region fluid
diagonal:  Solving for rho, Initial residual = 0, Final residual = 0, No Iterations 0
DILUPBiCGStab:  Solving for O2, Initial residual = 0.00106526, Final residual = 7.89334e-05, No Iterations 1
DILUPBiCGStab:  Solving for H2O, Initial residual = 0.00699814, Final residual = 0.000452169, No Iterations 1
DILUPBiCGStab:  Solving for CH4, Initial residual = 0.00163679, Final residual = 0.000120491, No Iterations 1
DILUPBiCGStab:  Solving for CO2, Initial residual = 0.00699814, Final residual = 0.000452169, No Iterations 1
DILUPBiCGStab:  Solving for h, Initial residual = 0.00268287, Final residual = 4.51611e-05, No Iterations 1
Min/max T:293 1703
DICPCG:  Solving for p, Initial residual = 0.00172017, Final residual = 7.618e-07, No Iterations 52
diagonal:  Solving for rho, Initial residual = 0, Final residual = 0, No Iterations 0
time step continuity errors : sum local = 1.77592e-09, global = -1.80891e-11, cumulative = -1.80891e-11
ExecutionTime = 3.7 s  ClockTime = 4 s

Region: fluid Courant Number mean: 0.214222 max: 0.386265
deltaT = 0.000476126
Time = 0.0490477


Solving for fluid region fluid
diagonal:  Solving for rho, Initial residual = 0, Final residual = 0, No Iterations 0
DILUPBiCGStab:  Solving for O2, Initial residual = 0.00104139, Final residual = 7.68977e-05, No Iterations 1
DILUPBiCGStab:  Solving for H2O, Initial residual = 0.00686725, Final residual = 0.000447825, No Iterations 1
DILUPBiCGStab:  Solving for CH4, Initial residual = 0.00161263, Final residual = 0.000118479, No Iterations 1
DILUPBiCGStab:  Solving for CO2, Initial residual = 0.00686725, Final residual = 0.000447825, No Iterations 1
DILUPBiCGStab:  Solving for h, Initial residual = 0.00264326, Final residual = 4.47498e-05, No Iterations 1
Min/max T:293 1702.85
DICPCG:  Solving for p, Initial residual = 0.00166727, Final residual = 8.06968e-07, No Iterations 51
diagonal:  Solving for rho, Initial residual = 0, Final residual = 0, No Iterations 0
time step continuity errors : sum local = 1.88535e-09, global = 7.68173e-11, cumulative = 7.68173e-11
ExecutionTime = 3.74 s  ClockTime = 4 s

Region: fluid Courant Number mean: 0.214758 max: 0.386379
deltaT = 0.000476126
Time = 0.0495239


Solving for fluid region fluid
diagonal:  Solving for rho, Initial residual = 0, Final residual = 0, No Iterations 0
DILUPBiCGStab:  Solving for O2, Initial residual = 0.00101826, Final residual = 7.48763e-05, No Iterations 1
DILUPBiCGStab:  Solving for H2O, Initial residual = 0.00674126, Final residual = 0.000447497, No Iterations 1
DILUPBiCGStab:  Solving for CH4, Initial residual = 0.00158889, Final residual = 0.000116884, No Iterations 1
DILUPBiCGStab:  Solving for CO2, Initial residual = 0.00674126, Final residual = 0.000447497, No Iterations 1
DILUPBiCGStab:  Solving for h, Initial residual = 0.00260459, Final residual = 4.44045e-05, No Iterations 1
Min/max T:293 1702.77
DICPCG:  Solving for p, Initial residual = 0.00173419, Final residual = 9.38867e-07, No Iterations 51
diagonal:  Solving for rho, Initial residual = 0, Final residual = 0, No Iterations 0
time step continuity errors : sum local = 2.1879e-09, global = 1.00315e-10, cumulative = 1.00315e-10
ExecutionTime = 3.78 s  ClockTime = 4 s

Region: fluid Courant Number mean: 0.215293 max: 0.386693
deltaT = 0.000476126
Time = 0.05


Solving for fluid region fluid
diagonal:  Solving for rho, Initial residual = 0, Final residual = 0, No Iterations 0
DILUPBiCGStab:  Solving for O2, Initial residual = 0.000995431, Final residual = 7.29214e-05, No Iterations 1
DILUPBiCGStab:  Solving for H2O, Initial residual = 0.0066155, Final residual = 0.000442338, No Iterations 1
DILUPBiCGStab:  Solving for CH4, Initial residual = 0.0015655, Final residual = 0.000115303, No Iterations 1
DILUPBiCGStab:  Solving for CO2, Initial residual = 0.0066155, Final residual = 0.000442338, No Iterations 1
DILUPBiCGStab:  Solving for h, Initial residual = 0.00256565, Final residual = 4.39855e-05, No Iterations 1
Min/max T:293 1702.75
DICPCG:  Solving for p, Initial residual = 0.00224532, Final residual = 8.40559e-07, No Iterations 53
diagonal:  Solving for rho, Initial residual = 0, Final residual = 0, No Iterations 0
time step continuity errors : sum local = 1.96806e-09, global = 2.83868e-11, cumulative = 2.83868e-11
ExecutionTime = 3.84 s  ClockTime = 4 s

Region: fluid Courant Number mean: 0.215838 max: 0.386974
deltaT = 0.000490196
Time = 0.0504902


Solving for fluid region fluid
diagonal:  Solving for rho, Initial residual = 0, Final residual = 0, No Iterations 0
DILUPBiCGStab:  Solving for O2, Initial residual = 0.000995677, Final residual = 7.53791e-05, No Iterations 1
DILUPBiCGStab:  Solving for H2O, Initial residual = 0.0064745, Final residual = 0.000449961, No Iterations 1
DILUPBiCGStab:  Solving for CH4, Initial residual = 0.00158785, Final residual = 0.000120407, No Iterations 1
DILUPBiCGStab:  Solving for CO2, Initial residual = 0.0064745, Final residual = 0.000449961, No Iterations 1
DILUPBiCGStab:  Solving for h, Initial residual = 0.00255807, Final residual = 4.25326e-05, No Iterations 1
Min/max T:293 1701.78
DICPCG:  Solving for p, Initial residual = 0.0117656, Final residual = 7.06653e-07, No Iterations 59
diagonal:  Solving for rho, Initial residual = 0, Final residual = 0, No Iterations 0
time step continuity errors : sum local = 1.73869e-09, global = -6.0614e-11, cumulative = -6.0614e-11
ExecutionTime = 3.88 s  ClockTime = 4 s

Region: fluid Courant Number mean: 0.222741 max: 0.398175
deltaT = 0.000490196
Time = 0.0509804


Solving for fluid region fluid
diagonal:  Solving for rho, Initial residual = 0, Final residual = 0, No Iterations 0
DILUPBiCGStab:  Solving for O2, Initial residual = 0.000981793, Final residual = 7.3639e-05, No Iterations 1
DILUPBiCGStab:  Solving for H2O, Initial residual = 0.00649257, Final residual = 0.000455379, No Iterations 1
DILUPBiCGStab:  Solving for CH4, Initial residual = 0.0015673, Final residual = 0.00011858, No Iterations 1
DILUPBiCGStab:  Solving for CO2, Initial residual = 0.00649257, Final residual = 0.000455379, No Iterations 1
DILUPBiCGStab:  Solving for h, Initial residual = 0.00256308, Final residual = 4.60699e-05, No Iterations 1
Min/max T:293 1701.71
DICPCG:  Solving for p, Initial residual = 0.0325655, Final residual = 9.78593e-07, No Iterations 56
diagonal:  Solving for rho, Initial residual = 0, Final residual = 0, No Iterations 0
time step continuity errors : sum local = 1.60392e-09, global = 1.09921e-11, cumulative = 1.09921e-11
ExecutionTime = 3.91 s  ClockTime = 4 s

Region: fluid Courant Number mean: 0.223235 max: 0.398437
deltaT = 0.000490196
Time = 0.0514706


Solving for fluid region fluid
diagonal:  Solving for rho, Initial residual = 0, Final residual = 0, No Iterations 0
DILUPBiCGStab:  Solving for O2, Initial residual = 0.000957125, Final residual = 7.15987e-05, No Iterations 1
DILUPBiCGStab:  Solving for H2O, Initial residual = 0.0064454, Final residual = 0.000448596, No Iterations 1
DILUPBiCGStab:  Solving for CH4, Initial residual = 0.00154147, Final residual = 0.00011659, No Iterations 1
DILUPBiCGStab:  Solving for CO2, Initial residual = 0.0064454, Final residual = 0.000448596, No Iterations 1
DILUPBiCGStab:  Solving for h, Initial residual = 0.00253316, Final residual = 4.71647e-05, No Iterations 1
Min/max T:293 1701.84
DICPCG:  Solving for p, Initial residual = 0.010902, Final residual = 7.59293e-07, No Iterations 54
diagonal:  Solving for rho, Initial residual = 0, Final residual = 0, No Iterations 0
time step continuity errors : sum local = 2.03428e-09, global = 7.52586e-11, cumulative = 7.52586e-11
ExecutionTime = 3.95 s  ClockTime = 4 s

Region: fluid Courant Number mean: 0.223851 max: 0.398886
deltaT = 0.000490196
Time = 0.0519608


Solving for fluid region fluid
diagonal:  Solving for rho, Initial residual = 0, Final residual = 0, No Iterations 0
DILUPBiCGStab:  Solving for O2, Initial residual = 0.000933379, Final residual = 6.96467e-05, No Iterations 1
DILUPBiCGStab:  Solving for H2O, Initial residual = 0.00635377, Final residual = 0.000445601, No Iterations 1
DILUPBiCGStab:  Solving for CH4, Initial residual = 0.0015159, Final residual = 0.000114595, No Iterations 1
DILUPBiCGStab:  Solving for CO2, Initial residual = 0.00635377, Final residual = 0.000445601, No Iterations 1
DILUPBiCGStab:  Solving for h, Initial residual = 0.00249455, Final residual = 4.73574e-05, No Iterations 1
Min/max T:293 1702.29
DICPCG:  Solving for p, Initial residual = 0.00344824, Final residual = 8.9851e-07, No Iterations 52
diagonal:  Solving for rho, Initial residual = 0, Final residual = 0, No Iterations 0
time step continuity errors : sum local = 2.61307e-09, global = 4.13442e-11, cumulative = 4.13442e-11
ExecutionTime = 3.99 s  ClockTime = 4 s

Region: fluid Courant Number mean: 0.224497 max: 0.399239
deltaT = 0.000490196
Time = 0.052451


Solving for fluid region fluid
diagonal:  Solving for rho, Initial residual = 0, Final residual = 0, No Iterations 0
DILUPBiCGStab:  Solving for O2, Initial residual = 0.000912157, Final residual = 6.79203e-05, No Iterations 1
DILUPBiCGStab:  Solving for H2O, Initial residual = 0.00624794, Final residual = 0.000441111, No Iterations 1
DILUPBiCGStab:  Solving for CH4, Initial residual = 0.00149196, Final residual = 0.000112493, No Iterations 1
DILUPBiCGStab:  Solving for CO2, Initial residual = 0.00624794, Final residual = 0.000441111, No Iterations 1
DILUPBiCGStab:  Solving for h, Initial residual = 0.0024571, Final residual = 4.74085e-05, No Iterations 1
Min/max T:293 1703.16
DICPCG:  Solving for p, Initial residual = 0.00239931, Final residual = 7.91684e-07, No Iterations 51
diagonal:  Solving for rho, Initial residual = 0, Final residual = 0, No Iterations 0
time step continuity errors : sum local = 2.1924e-09, global = 9.61652e-11, cumulative = 9.61652e-11
ExecutionTime = 4.03 s  ClockTime = 4 s

Region: fluid Courant Number mean: 0.225106 max: 0.399414
deltaT = 0.000490196
Time = 0.0529412


Solving for fluid region fluid
diagonal:  Solving for rho, Initial residual = 0, Final residual = 0, No Iterations 0
DILUPBiCGStab:  Solving for O2, Initial residual = 0.000891039, Final residual = 6.62334e-05, No Iterations 1
DILUPBiCGStab:  Solving for H2O, Initial residual = 0.00614134, Final residual = 0.000436514, No Iterations 1
DILUPBiCGStab:  Solving for CH4, Initial residual = 0.0014691, Final residual = 0.000110723, No Iterations 1
DILUPBiCGStab:  Solving for CO2, Initial residual = 0.00614134, Final residual = 0.000436514, No Iterations 1
DILUPBiCGStab:  Solving for h, Initial residual = 0.0024214, Final residual = 4.74663e-05, No Iterations 1
Min/max T:293 1704
DICPCG:  Solving for p, Initial residual = 0.00162219, Final residual = 8.39718e-07, No Iterations 49
diagonal:  Solving for rho, Initial residual = 0, Final residual = 0, No Iterations 0
time step continuity errors : sum local = 2.17883e-09, global = -5.94471e-11, cumulative = -5.94471e-11
ExecutionTime = 4.07 s  ClockTime = 4 s

Region: fluid Courant Number mean: 0.225694 max: 0.39978
deltaT = 0.000490196
Time = 0.0534314


Solving for fluid region fluid
diagonal:  Solving for rho, Initial residual = 0, Final residual = 0, No Iterations 0
DILUPBiCGStab:  Solving for O2, Initial residual = 0.00086946, Final residual = 6.45857e-05, No Iterations 1
DILUPBiCGStab:  Solving for H2O, Initial residual = 0.00603651, Final residual = 0.00043131, No Iterations 1
DILUPBiCGStab:  Solving for CH4, Initial residual = 0.00144683, Final residual = 0.00010921, No Iterations 1
DILUPBiCGStab:  Solving for CO2, Initial residual = 0.00603651, Final residual = 0.00043131, No Iterations 1
DILUPBiCGStab:  Solving for h, Initial residual = 0.00238645, Final residual = 4.75797e-05, No Iterations 1
Min/max T:293 1704.93
DICPCG:  Solving for p, Initial residual = 0.00119137, Final residual = 9.55063e-07, No Iterations 50
diagonal:  Solving for rho, Initial residual = 0, Final residual = 0, No Iterations 0
time step continuity errors : sum local = 2.4118e-09, global = 1.90143e-11, cumulative = 1.90143e-11
ExecutionTime = 4.11 s  ClockTime = 4 s

Region: fluid Courant Number mean: 0.226284 max: 0.400202
deltaT = 0.00048509
Time = 0.0539165


Solving for fluid region fluid
diagonal:  Solving for rho, Initial residual = 0, Final residual = 0, No Iterations 0
DILUPBiCGStab:  Solving for O2, Initial residual = 0.000847375, Final residual = 6.29765e-05, No Iterations 1
DILUPBiCGStab:  Solving for H2O, Initial residual = 0.00594284, Final residual = 0.000422817, No Iterations 1
DILUPBiCGStab:  Solving for CH4, Initial residual = 0.00141003, Final residual = 0.000105141, No Iterations 1
DILUPBiCGStab:  Solving for CO2, Initial residual = 0.00594284, Final residual = 0.000422817, No Iterations 1
DILUPBiCGStab:  Solving for h, Initial residual = 0.00234576, Final residual = 4.87491e-05, No Iterations 1
Min/max T:293 1706.34
DICPCG:  Solving for p, Initial residual = 0.00514864, Final residual = 9.26721e-07, No Iterations 53
diagonal:  Solving for rho, Initial residual = 0, Final residual = 0, No Iterations 0
time step continuity errors : sum local = 2.30478e-09, global = -8.52105e-11, cumulative = -8.52105e-11
ExecutionTime = 4.15 s  ClockTime = 4 s

Region: fluid Courant Number mean: 0.224548 max: 0.396635
deltaT = 0.00048509
Time = 0.0544016


Solving for fluid region fluid
diagonal:  Solving for rho, Initial residual = 0, Final residual = 0, No Iterations 0
DILUPBiCGStab:  Solving for O2, Initial residual = 0.000819584, Final residual = 5.99975e-05, No Iterations 1
DILUPBiCGStab:  Solving for H2O, Initial residual = 0.00579552, Final residual = 0.000416692, No Iterations 1
DILUPBiCGStab:  Solving for CH4, Initial residual = 0.00138752, Final residual = 0.000103294, No Iterations 1
DILUPBiCGStab:  Solving for CO2, Initial residual = 0.00579552, Final residual = 0.000416692, No Iterations 1
DILUPBiCGStab:  Solving for h, Initial residual = 0.00229429, Final residual = 4.70459e-05, No Iterations 1
Min/max T:293 1707.36
DICPCG:  Solving for p, Initial residual = 0.00796468, Final residual = 7.0972e-07, No Iterations 54
diagonal:  Solving for rho, Initial residual = 0, Final residual = 0, No Iterations 0
time step continuity errors : sum local = 2.02532e-09, global = 2.87046e-11, cumulative = 2.87046e-11
ExecutionTime = 4.18 s  ClockTime = 4 s

Region: fluid Courant Number mean: 0.225151 max: 0.39691
deltaT = 0.00048509
Time = 0.0548866


Solving for fluid region fluid
diagonal:  Solving for rho, Initial residual = 0, Final residual = 0, No Iterations 0
DILUPBiCGStab:  Solving for O2, Initial residual = 0.000800668, Final residual = 5.84938e-05, No Iterations 1
DILUPBiCGStab:  Solving for H2O, Initial residual = 0.00567039, Final residual = 0.000411834, No Iterations 1
DILUPBiCGStab:  Solving for CH4, Initial residual = 0.00136779, Final residual = 0.000101819, No Iterations 1
DILUPBiCGStab:  Solving for CO2, Initial residual = 0.00567039, Final residual = 0.000411834, No Iterations 1
DILUPBiCGStab:  Solving for h, Initial residual = 0.00225728, Final residual = 4.64839e-05, No Iterations 1
Min/max T:293 1708.32
DICPCG:  Solving for p, Initial residual = 0.00510799, Final residual = 6.8584e-07, No Iterations 52
diagonal:  Solving for rho, Initial residual = 0, Final residual = 0, No Iterations 0
time step continuity errors : sum local = 1.63591e-09, global = -3.64513e-11, cumulative = -3.64513e-11
ExecutionTime = 4.22 s  ClockTime = 4 s

Region: fluid Courant Number mean: 0.225709 max: 0.397046
deltaT = 0.00048509
Time = 0.0553717


Solving for fluid region fluid
diagonal:  Solving for rho, Initial residual = 0, Final residual = 0, No Iterations 0
DILUPBiCGStab:  Solving for O2, Initial residual = 0.000782448, Final residual = 5.69074e-05, No Iterations 1
DILUPBiCGStab:  Solving for H2O, Initial residual = 0.00555944, Final residual = 0.000407932, No Iterations 1
DILUPBiCGStab:  Solving for CH4, Initial residual = 0.00134855, Final residual = 0.000100547, No Iterations 1
DILUPBiCGStab:  Solving for CO2, Initial residual = 0.00555944, Final residual = 0.000407932, No Iterations 1
DILUPBiCGStab:  Solving for h, Initial residual = 0.00222402, Final residual = 4.63063e-05, No Iterations 1
Min/max T:293 1709.24
DICPCG:  Solving for p, Initial residual = 0.00187125, Final residual = 8.9648e-07, No Iterations 50
diagonal:  Solving for rho, Initial residual = 0, Final residual = 0, No Iterations 0
time step continuity errors : sum local = 2.02662e-09, global = -1.76342e-11, cumulative = -1.76342e-11
ExecutionTime = 4.26 s  ClockTime = 4 s

Region: fluid Courant Number mean: 0.226256 max: 0.397154
deltaT = 0.00048509
Time = 0.0558568


Solving for fluid region fluid
diagonal:  Solving for rho, Initial residual = 0, Final residual = 0, No Iterations 0
