/*---------------------------------------------------------------------------*\
  =========                 |
  \\      /  F ield         | OpenFOAM: The Open Source CFD Toolbox
   \\    /   O peration     | Website:  https://openfoam.org
    \\  /    A nd           | Version:  10
     \\/     M anipulation  |
\*---------------------------------------------------------------------------*/
Build  : 10-c4cf895ad8fa
Exec   : chtMultiRegionFoamLTS -parallel
Date   : Jun 21 2023
Time   : 08:50:02
Host   : "aris"
PID    : 1895590
I/O    : uncollated
Case   : /home/eadaymo/OpenFOAM/eadaymo-10/run/MRRFSupport/multiRegionReactingFoamTutorials/tutorials-OpenFOAM-10/reverseBurner-chtMultiRegionFoamLTS
nProcs : 4
Slaves : 
3
(
"aris.1895591"
"aris.1895592"
"aris.1895593"
)

Pstream initialised with:
    floatTransfer      : 0
    nProcsSimpleSum    : 0
    commsType          : nonBlocking
    polling iterations : 0
sigFpe : Enabling floating point exception trapping (FOAM_SIGFPE).
fileModificationChecking : Monitoring run-time modified files using timeStampMaster (fileModificationSkew 10)
allowSystemOperations : Allowing user-supplied system call operations

// * * * * * * * * * * * * * * * * * * * * * * * * * * * * * * * * * * * * * //
Create time

Create fluid mesh for region gas for time = 0

Create solid mesh for region solid for time = 0


PIMPLE: Region gas
PIMPLE: No convergence criteria found


PIMPLE: Region solid
PIMPLE: No convergence criteria found


PIMPLE: Operating solver in mixed steady-state/transient mode with 1 outer corrector


Using LTS
*** Reading fluid mesh thermophysical properties for region gas

    Adding to thermoFluid

Selecting thermodynamics package 
{
    type            heRhoThermo;
    mixture         multiComponentMixture;
    transport       sutherland;
    thermo          janaf;
    equationOfState perfectGas;
    specie          specie;
    energy          sensibleEnthalpy;
}

    Adding to rhoFluid

    Adding to UFluid

    Adding to phiFluid

    Adding to gFluid

    Adding to hRefFluid

    Adding to pRefFluid

    Adding to ghFluid

    Adding to ghfFluid

    Adding to turbulenceFluid

Selecting turbulence model type RAS
Selecting RAS turbulence model kEpsilon
RAS
{
    model           kEpsilon;
    turbulence      on;
    printCoeffs     on;
    Cmu             0.09;
    C1              1.44;
    C2              1.92;
    C3              0;
    sigmak          1;
    sigmaEps        1.3;
}

    Adding to thermophysicalTransport

Selecting thermophysical transport type RAS
Selecting RAS thermophysical transport model nonUnityLewisEddyDiffusivity
    Adding to reactionFluid

Selecting combustion model PaSR
Selecting chemistry solver 
{
    solver          EulerImplicit;
    method          chemistryModel;
}

odeChemistryModel: Number of species = 5
chemistryModel: Number of species = 5 and reactions = 1
    using integrated reaction rate
    Adding to KFluid

    Adding to dpdtFluid

    Adding to fieldsFluid

    Adding MRF

No MRF models present

    Adding fvModelsFluid

Creating fvModels from "constant/fvModels"

Selecting finite volume model type heatSource
    Name: ignition
    - selecting cells using cellSet ignition
    - selected 16 cell(s) with volume 3e-07
Selecting finite volume model type radiation
    Name: radiation
Selecting radiationModel P1
Selecting absorptionEmissionModel constant
Selecting scatterModel none
Selecting soot model none
    Adding fvConstraintsFluid

*** Reading solid mesh thermophysical properties for region solid

    Adding to thermoSolid

Selecting thermodynamics package 
{
    type            heSolidThermo;
    mixture         pureMixture;
    transport       constIsoSolid;
    thermo          eConst;
    equationOfState rhoConst;
    specie          specie;
    energy          sensibleInternalEnergy;
}

    Adding to fvModelsSolid

Creating fvModels from "constant/fvModels"

Selecting finite volume model type radiation
    Name: radiation
Selecting radiationModel opaqueSolid
Selecting absorptionEmissionModel constant
Selecting scatterModel none
Selecting soot model none
    Adding fvConstraintsSolid

Region: gas Courant Number mean: 0.0343484 max: 30
Region: solid Diffusion Number mean: 3.55783 max: 808
Time scales min/max:
    Flow        = 0.001, 0.001
    Temperature = 4.49423e+307, 4.49423e+307
    Overall     = 0.001, 0.001
Time = 1s


Solving for solid region solid
DICPCG:  Solving for e, Initial residual = 0.0144051, Final residual = 0.00118452, No Iterations 1
Min/max T:300 300

Solving for fluid region gas
diagonal:  Solving for rho, Initial residual = 0, Final residual = 0, No Iterations 0
DILUPBiCGStab:  Solving for Ux, Initial residual = 1, Final residual = 1.32818e-08, No Iterations 2
DILUPBiCGStab:  Solving for Uy, Initial residual = 1, Final residual = 1.16889e-08, No Iterations 2
DILUPBiCGStab:  Solving for Uz, Initial residual = 1, Final residual = 1.17755e-08, No Iterations 2
DILUPBiCGStab:  Solving for O2, Initial residual = 4.23392e-07, Final residual = 1.63304e-13, No Iterations 1
DILUPBiCGStab:  Solving for H2O, Initial residual = 0, Final residual = 0, No Iterations 0
DILUPBiCGStab:  Solving for CH4, Initial residual = 4.23392e-07, Final residual = 1.63304e-13, No Iterations 1
DILUPBiCGStab:  Solving for CO2, Initial residual = 0, Final residual = 0, No Iterations 0
GAMG:  Solving for G, Initial residual = 1, Final residual = 5.04128e-09, No Iterations 1
DILUPBiCGStab:  Solving for h, Initial residual = 0.0131493, Final residual = 1.87297e-09, No Iterations 1
Min/max T:300 304.281
GAMG:  Solving for p_rgh, Initial residual = 1, Final residual = 0.00665546, No Iterations 9
diagonal:  Solving for rho, Initial residual = 0, Final residual = 0, No Iterations 0
time step continuity errors : sum local = 4.6849e-07, global = -3.30978e-08, cumulative = -3.30978e-08
GAMG:  Solving for p_rgh, Initial residual = 0.00223291, Final residual = 8.01483e-08, No Iterations 18
diagonal:  Solving for rho, Initial residual = 0, Final residual = 0, No Iterations 0
time step continuity errors : sum local = 1.50506e-09, global = -2.49376e-10, cumulative = -3.33472e-08
DILUPBiCGStab:  Solving for epsilon, Initial residual = 0.0224106, Final residual = 1.44036e-08, No Iterations 2
DILUPBiCGStab:  Solving for k, Initial residual = 1, Final residual = 9.8506e-09, No Iterations 3
Time scales min/max:
    Flow        = 0.001, 0.001
    Temperature = 4.49423e+307, 4.49423e+307
    Overall     = 0.001, 0.001
Time = 2s


Solving for solid region solid
DICPCG:  Solving for e, Initial residual = 1, Final residual = 0.0138155, No Iterations 2
Min/max T:300 300.002

Solving for fluid region gas
diagonal:  Solving for rho, Initial residual = 0, Final residual = 0, No Iterations 0
DILUPBiCGStab:  Solving for Ux, Initial residual = 0.28598, Final residual = 8.25663e-09, No Iterations 3
DILUPBiCGStab:  Solving for Uy, Initial residual = 0.22496, Final residual = 2.12935e-08, No Iterations 3
DILUPBiCGStab:  Solving for Uz, Initial residual = 0.14522, Final residual = 3.709e-08, No Iterations 3
DILUPBiCGStab:  Solving for O2, Initial residual = 6.70155e-05, Final residual = 1.31296e-08, No Iterations 1
DILUPBiCGStab:  Solving for H2O, Initial residual = 1.29023e-12, Final residual = 1.29023e-12, No Iterations 0
DILUPBiCGStab:  Solving for CH4, Initial residual = 6.70155e-05, Final residual = 1.31296e-08, No Iterations 1
DILUPBiCGStab:  Solving for CO2, Initial residual = 1.57596e-12, Final residual = 1.57596e-12, No Iterations 0
GAMG:  Solving for G, Initial residual = 0.996793, Final residual = 0.0026613, No Iterations 1000
DILUPBiCGStab:  Solving for h, Initial residual = 0.117391, Final residual = 1.99998e-08, No Iterations 3
Min/max T:299.973 308.639
GAMG:  Solving for p_rgh, Initial residual = 0.0115235, Final residual = 7.60139e-05, No Iterations 8
diagonal:  Solving for rho, Initial residual = 0, Final residual = 0, No Iterations 0
time step continuity errors : sum local = 1.36636e-06, global = -2.12884e-08, cumulative = -2.12884e-08
GAMG:  Solving for p_rgh, Initial residual = 0.0017212, Final residual = 9.97414e-08, No Iterations 15
diagonal:  Solving for rho, Initial residual = 0, Final residual = 0, No Iterations 0
time step continuity errors : sum local = 2.95657e-09, global = 4.22226e-10, cumulative = -2.08662e-08
DILUPBiCGStab:  Solving for epsilon, Initial residual = 0.0111549, Final residual = 2.207e-08, No Iterations 2
DILUPBiCGStab:  Solving for k, Initial residual = 0.47592, Final residual = 7.54111e-08, No Iterations 3
Time scales min/max:
    Flow        = 0.001, 0.001
    Temperature = 1.49513e+16, 4.49423e+307
    Overall     = 0.001, 0.001
Time = 3s


Solving for solid region solid
DICPCG:  Solving for e, Initial residual = 0.143938, Final residual = 0.00237984, No Iterations 2
Min/max T:300 300.005

Solving for fluid region gas
diagonal:  Solving for rho, Initial residual = 0, Final residual = 0, No Iterations 0
DILUPBiCGStab:  Solving for Ux, Initial residual = 0.193444, Final residual = 5.3315e-08, No Iterations 3
DILUPBiCGStab:  Solving for Uy, Initial residual = 0.153854, Final residual = 2.23013e-08, No Iterations 3
DILUPBiCGStab:  Solving for Uz, Initial residual = 0.154268, Final residual = 1.98907e-08, No Iterations 4
DILUPBiCGStab:  Solving for O2, Initial residual = 6.26146e-05, Final residual = 3.30842e-08, No Iterations 1
DILUPBiCGStab:  Solving for H2O, Initial residual = 3.0496e-11, Final residual = 3.0496e-11, No Iterations 0
DILUPBiCGStab:  Solving for CH4, Initial residual = 6.26146e-05, Final residual = 3.30842e-08, No Iterations 1
DILUPBiCGStab:  Solving for CO2, Initial residual = 3.72497e-11, Final residual = 3.72497e-11, No Iterations 0
GAMG:  Solving for G, Initial residual = 0.58782, Final residual = 0.000412908, No Iterations 1000
DILUPBiCGStab:  Solving for h, Initial residual = 0.0745587, Final residual = 6.44585e-08, No Iterations 3
Min/max T:299.951 313.031
GAMG:  Solving for p_rgh, Initial residual = 0.00384263, Final residual = 2.58929e-05, No Iterations 9
diagonal:  Solving for rho, Initial residual = 0, Final residual = 0, No Iterations 0
time step continuity errors : sum local = 7.40509e-07, global = -1.0408e-08, cumulative = -1.0408e-08
GAMG:  Solving for p_rgh, Initial residual = 0.000918418, Final residual = 6.59383e-08, No Iterations 17
diagonal:  Solving for rho, Initial residual = 0, Final residual = 0, No Iterations 0
time step continuity errors : sum local = 1.66408e-09, global = 1.82106e-11, cumulative = -1.03898e-08
DILUPBiCGStab:  Solving for epsilon, Initial residual = 0.0388231, Final residual = 4.53305e-08, No Iterations 4
DILUPBiCGStab:  Solving for k, Initial residual = 0.279074, Final residual = 3.03336e-08, No Iterations 4
Time scales min/max:
    Flow        = 0.001, 0.001
    Temperature = 1.92317e+15, 4.49423e+307
    Overall     = 0.001, 0.001
Time = 4s


Solving for solid region solid
DICPCG:  Solving for e, Initial residual = 0.0780177, Final residual = 0.00111913, No Iterations 2
Min/max T:300 300.009

Solving for fluid region gas
diagonal:  Solving for rho, Initial residual = 0, Final residual = 0, No Iterations 0
DILUPBiCGStab:  Solving for Ux, Initial residual = 0.0981297, Final residual = 9.15708e-08, No Iterations 3
DILUPBiCGStab:  Solving for Uy, Initial residual = 0.106918, Final residual = 5.01679e-08, No Iterations 4
DILUPBiCGStab:  Solving for Uz, Initial residual = 0.125131, Final residual = 3.8593e-08, No Iterations 5
DILUPBiCGStab:  Solving for O2, Initial residual = 6.21784e-05, Final residual = 6.22301e-08, No Iterations 1
DILUPBiCGStab:  Solving for H2O, Initial residual = 9.66514e-11, Final residual = 9.66514e-11, No Iterations 0
DILUPBiCGStab:  Solving for CH4, Initial residual = 6.21784e-05, Final residual = 6.22301e-08, No Iterations 1
DILUPBiCGStab:  Solving for CO2, Initial residual = 1.18056e-10, Final residual = 1.18056e-10, No Iterations 0
GAMG:  Solving for G, Initial residual = 0.257296, Final residual = 0.000159308, No Iterations 1000
DILUPBiCGStab:  Solving for h, Initial residual = 0.0427916, Final residual = 3.97459e-08, No Iterations 4
Min/max T:299.953 317.456
GAMG:  Solving for p_rgh, Initial residual = 0.00310661, Final residual = 2.18341e-05, No Iterations 9
diagonal:  Solving for rho, Initial residual = 0, Final residual = 0, No Iterations 0
time step continuity errors : sum local = 5.53019e-07, global = -3.14448e-09, cumulative = -3.14448e-09
GAMG:  Solving for p_rgh, Initial residual = 0.00163557, Final residual = 8.6237e-08, No Iterations 17
diagonal:  Solving for rho, Initial residual = 0, Final residual = 0, No Iterations 0
time step continuity errors : sum local = 1.00952e-09, global = -1.74702e-11, cumulative = -3.16195e-09
DILUPBiCGStab:  Solving for epsilon, Initial residual = 0.0574266, Final residual = 4.77015e-08, No Iterations 5
DILUPBiCGStab:  Solving for k, Initial residual = 0.163666, Final residual = 3.40309e-08, No Iterations 5
Time scales min/max:
    Flow        = 0.001, 0.001
    Temperature = 5.20755e+10, 4.49423e+307
    Overall     = 0.001, 0.001
Time = 5s


Solving for solid region solid
DICPCG:  Solving for e, Initial residual = 0.0463834, Final residual = 0.000543203, No Iterations 2
Min/max T:300 300.014

Solving for fluid region gas
diagonal:  Solving for rho, Initial residual = 0, Final residual = 0, No Iterations 0
DILUPBiCGStab:  Solving for Ux, Initial residual = 0.0193961, Final residual = 4.61921e-08, No Iterations 4
DILUPBiCGStab:  Solving for Uy, Initial residual = 0.0583565, Final residual = 6.54439e-08, No Iterations 4
DILUPBiCGStab:  Solving for Uz, Initial residual = 0.0584347, Final residual = 5.95274e-08, No Iterations 6
DILUPBiCGStab:  Solving for O2, Initial residual = 5.46621e-05, Final residual = 6.03429e-08, No Iterations 1
DILUPBiCGStab:  Solving for H2O, Initial residual = 2.78637e-10, Final residual = 2.78637e-10, No Iterations 0
DILUPBiCGStab:  Solving for CH4, Initial residual = 5.46621e-05, Final residual = 6.03429e-08, No Iterations 1
DILUPBiCGStab:  Solving for CO2, Initial residual = 3.40345e-10, Final residual = 3.40345e-10, No Iterations 0
GAMG:  Solving for G, Initial residual = 0.141039, Final residual = 9.99644e-05, No Iterations 1000
DILUPBiCGStab:  Solving for h, Initial residual = 0.0500373, Final residual = 4.69835e-08, No Iterations 5
Min/max T:299.977 321.927
GAMG:  Solving for p_rgh, Initial residual = 0.00920809, Final residual = 8.46879e-05, No Iterations 9
diagonal:  Solving for rho, Initial residual = 0, Final residual = 0, No Iterations 0
time step continuity errors : sum local = 1.07291e-06, global = 1.21512e-08, cumulative = 1.21512e-08
GAMG:  Solving for p_rgh, Initial residual = 0.00492939, Final residual = 5.97067e-08, No Iterations 20
diagonal:  Solving for rho, Initial residual = 0, Final residual = 0, No Iterations 0
time step continuity errors : sum local = 1.85334e-10, global = -2.97424e-11, cumulative = 1.21214e-08
DILUPBiCGStab:  Solving for epsilon, Initial residual = 0.0492062, Final residual = 1.14562e-08, No Iterations 6
DILUPBiCGStab:  Solving for k, Initial residual = 0.090665, Final residual = 2.45582e-08, No Iterations 6
Time scales min/max:
    Flow        = 0.001, 0.001
    Temperature = 5.20647e+10, 4.49423e+307
    Overall     = 0.001, 0.001
Time = 6s


Solving for solid region solid
DICPCG:  Solving for e, Initial residual = 0.0297442, Final residual = 0.000280888, No Iterations 2
Min/max T:300 300.02

Solving for fluid region gas
diagonal:  Solving for rho, Initial residual = 0, Final residual = 0, No Iterations 0
DILUPBiCGStab:  Solving for Ux, Initial residual = 0.032859, Final residual = 2.77535e-08, No Iterations 4
DILUPBiCGStab:  Solving for Uy, Initial residual = 0.0177762, Final residual = 2.34584e-08, No Iterations 4
DILUPBiCGStab:  Solving for Uz, Initial residual = 0.0350988, Final residual = 3.52155e-08, No Iterations 6
DILUPBiCGStab:  Solving for O2, Initial residual = 4.54843e-05, Final residual = 4.26371e-08, No Iterations 1
DILUPBiCGStab:  Solving for H2O, Initial residual = 7.67415e-10, Final residual = 7.67415e-10, No Iterations 0
DILUPBiCGStab:  Solving for CH4, Initial residual = 4.54843e-05, Final residual = 4.26371e-08, No Iterations 1
DILUPBiCGStab:  Solving for CO2, Initial residual = 9.37368e-10, Final residual = 9.37368e-10, No Iterations 0
GAMG:  Solving for G, Initial residual = 0.105183, Final residual = 7.71632e-05, No Iterations 1000
DILUPBiCGStab:  Solving for h, Initial residual = 0.0651904, Final residual = 2.17666e-08, No Iterations 5
Min/max T:299.987 326.449
GAMG:  Solving for p_rgh, Initial residual = 0.0499143, Final residual = 0.000271839, No Iterations 10
diagonal:  Solving for rho, Initial residual = 0, Final residual = 0, No Iterations 0
time step continuity errors : sum local = 5.69902e-07, global = 9.03911e-08, cumulative = 9.03911e-08
GAMG:  Solving for p_rgh, Initial residual = 0.00132071, Final residual = 7.72273e-08, No Iterations 17
diagonal:  Solving for rho, Initial residual = 0, Final residual = 0, No Iterations 0
time step continuity errors : sum local = 9.90763e-10, global = -5.04712e-12, cumulative = 9.0386e-08
DILUPBiCGStab:  Solving for epsilon, Initial residual = 0.0300431, Final residual = 9.27962e-08, No Iterations 5
DILUPBiCGStab:  Solving for k, Initial residual = 0.0512736, Final residual = 4.52502e-08, No Iterations 6
Time scales min/max:
    Flow        = 0.001, 0.001
    Temperature = 5.20628e+10, 4.49423e+307
    Overall     = 0.001, 0.001
Time = 7s


Solving for solid region solid
DICPCG:  Solving for e, Initial residual = 0.0239916, Final residual = 0.000253385, No Iterations 2
Min/max T:300 300.026

Solving for fluid region gas
diagonal:  Solving for rho, Initial residual = 0, Final residual = 0, No Iterations 0
DILUPBiCGStab:  Solving for Ux, Initial residual = 0.0518081, Final residual = 3.61949e-08, No Iterations 4
DILUPBiCGStab:  Solving for Uy, Initial residual = 0.0665459, Final residual = 3.2002e-08, No Iterations 4
DILUPBiCGStab:  Solving for Uz, Initial residual = 0.0282679, Final residual = 6.15058e-08, No Iterations 6
DILUPBiCGStab:  Solving for O2, Initial residual = 3.85073e-05, Final residual = 2.80337e-08, No Iterations 1
DILUPBiCGStab:  Solving for H2O, Initial residual = 2.03868e-09, Final residual = 2.03868e-09, No Iterations 0
DILUPBiCGStab:  Solving for CH4, Initial residual = 3.85073e-05, Final residual = 2.80337e-08, No Iterations 1
DILUPBiCGStab:  Solving for CO2, Initial residual = 2.49016e-09, Final residual = 2.49016e-09, No Iterations 0
GAMG:  Solving for G, Initial residual = 0.132005, Final residual = 6.60413e-05, No Iterations 1000
DILUPBiCGStab:  Solving for h, Initial residual = 0.0485873, Final residual = 7.35623e-08, No Iterations 4
Min/max T:299.983 331.022
GAMG:  Solving for p_rgh, Initial residual = 0.00307835, Final residual = 2.57605e-05, No Iterations 9
diagonal:  Solving for rho, Initial residual = 0, Final residual = 0, No Iterations 0
time step continuity errors : sum local = 3.14745e-07, global = 3.59547e-09, cumulative = 3.59547e-09
GAMG:  Solving for p_rgh, Initial residual = 0.000584338, Final residual = 7.79608e-08, No Iterations 15
diagonal:  Solving for rho, Initial residual = 0, Final residual = 0, No Iterations 0
time step continuity errors : sum local = 1.1728e-09, global = 2.54161e-12, cumulative = 3.59801e-09
DILUPBiCGStab:  Solving for epsilon, Initial residual = 0.0221403, Final residual = 4.42261e-08, No Iterations 5
DILUPBiCGStab:  Solving for k, Initial residual = 0.0331907, Final residual = 1.69179e-08, No Iterations 6
Time scales min/max:
    Flow        = 0.001, 0.001
    Temperature = 1.3894e+15, 4.49423e+307
    Overall     = 0.001, 0.001
Time = 8s


Solving for solid region solid
DICPCG:  Solving for e, Initial residual = 0.0192299, Final residual = 0.000217462, No Iterations 2
Min/max T:300 300.033

Solving for fluid region gas
diagonal:  Solving for rho, Initial residual = 0, Final residual = 0, No Iterations 0
DILUPBiCGStab:  Solving for Ux, Initial residual = 0.0579677, Final residual = 3.97951e-08, No Iterations 4
DILUPBiCGStab:  Solving for Uy, Initial residual = 0.0952524, Final residual = 3.45372e-08, No Iterations 4
DILUPBiCGStab:  Solving for Uz, Initial residual = 0.0241055, Final residual = 3.96535e-08, No Iterations 6
DILUPBiCGStab:  Solving for O2, Initial residual = 3.35537e-05, Final residual = 1.89093e-08, No Iterations 1
DILUPBiCGStab:  Solving for H2O, Initial residual = 5.27184e-09, Final residual = 5.27184e-09, No Iterations 0
DILUPBiCGStab:  Solving for CH4, Initial residual = 3.35537e-05, Final residual = 1.89093e-08, No Iterations 1
DILUPBiCGStab:  Solving for CO2, Initial residual = 6.43935e-09, Final residual = 6.43935e-09, No Iterations 0
GAMG:  Solving for G, Initial residual = 0.114213, Final residual = 5.46998e-05, No Iterations 1000
DILUPBiCGStab:  Solving for h, Initial residual = 0.0169934, Final residual = 4.30877e-08, No Iterations 4
Min/max T:299.983 335.643
GAMG:  Solving for p_rgh, Initial residual = 0.00275297, Final residual = 2.30263e-05, No Iterations 9
diagonal:  Solving for rho, Initial residual = 0, Final residual = 0, No Iterations 0
time step continuity errors : sum local = 3.45178e-07, global = -4.82259e-09, cumulative = -4.82259e-09
GAMG:  Solving for p_rgh, Initial residual = 0.000786542, Final residual = 8.15355e-08, No Iterations 15
diagonal:  Solving for rho, Initial residual = 0, Final residual = 0, No Iterations 0
time step continuity errors : sum local = 8.55244e-10, global = 1.33462e-10, cumulative = -4.68913e-09
DILUPBiCGStab:  Solving for epsilon, Initial residual = 0.0174842, Final residual = 2.62683e-08, No Iterations 5
DILUPBiCGStab:  Solving for k, Initial residual = 0.0243597, Final residual = 7.31403e-08, No Iterations 5
Time scales min/max:
    Flow        = 0.001, 0.001
    Temperature = 4.95326e+10, 4.49423e+307
    Overall     = 0.001, 0.001
Time = 9s


Solving for solid region solid
DICPCG:  Solving for e, Initial residual = 0.0152482, Final residual = 0.00014958, No Iterations 2
Min/max T:300 300.041

Solving for fluid region gas
diagonal:  Solving for rho, Initial residual = 0, Final residual = 0, No Iterations 0
DILUPBiCGStab:  Solving for Ux, Initial residual = 0.0488213, Final residual = 9.01497e-08, No Iterations 4
DILUPBiCGStab:  Solving for Uy, Initial residual = 0.0751918, Final residual = 2.71667e-08, No Iterations 4
DILUPBiCGStab:  Solving for Uz, Initial residual = 0.0208955, Final residual = 7.99515e-08, No Iterations 5
DILUPBiCGStab:  Solving for O2, Initial residual = 3.11945e-05, Final residual = 1.38465e-08, No Iterations 1
DILUPBiCGStab:  Solving for H2O, Initial residual = 1.3353e-08, Final residual = 1.3353e-08, No Iterations 0
DILUPBiCGStab:  Solving for CH4, Initial residual = 3.11945e-05, Final residual = 1.38465e-08, No Iterations 1
DILUPBiCGStab:  Solving for CO2, Initial residual = 1.63102e-08, Final residual = 1.63102e-08, No Iterations 0
GAMG:  Solving for G, Initial residual = 0.0740235, Final residual = 4.60766e-05, No Iterations 1000
DILUPBiCGStab:  Solving for h, Initial residual = 0.0198467, Final residual = 8.44171e-08, No Iterations 4
Min/max T:299.986 340.307
GAMG:  Solving for p_rgh, Initial residual = 0.0060187, Final residual = 5.39539e-05, No Iterations 9
diagonal:  Solving for rho, Initial residual = 0, Final residual = 0, No Iterations 0
time step continuity errors : sum local = 5.86079e-07, global = -7.68997e-09, cumulative = -7.68997e-09
GAMG:  Solving for p_rgh, Initial residual = 0.00420751, Final residual = 8.36137e-08, No Iterations 18
diagonal:  Solving for rho, Initial residual = 0, Final residual = 0, No Iterations 0
time step continuity errors : sum local = 2.07486e-10, global = 3.17732e-11, cumulative = -7.6582e-09
DILUPBiCGStab:  Solving for epsilon, Initial residual = 0.0142516, Final residual = 1.56191e-08, No Iterations 5
DILUPBiCGStab:  Solving for k, Initial residual = 0.0191091, Final residual = 3.70993e-08, No Iterations 5
Time scales min/max:
    Flow        = 0.001, 0.001
    Temperature = 2.72229e+12, 4.49423e+307
    Overall     = 0.001, 0.001
Time = 10s


Solving for solid region solid
DICPCG:  Solving for e, Initial residual = 0.0121009, Final residual = 0.00113413, No Iterations 1
Min/max T:300 300.049

Solving for fluid region gas
diagonal:  Solving for rho, Initial residual = 0, Final residual = 0, No Iterations 0
DILUPBiCGStab:  Solving for Ux, Initial residual = 0.018045, Final residual = 7.61552e-08, No Iterations 4
DILUPBiCGStab:  Solving for Uy, Initial residual = 0.0208804, Final residual = 4.17674e-08, No Iterations 4
DILUPBiCGStab:  Solving for Uz, Initial residual = 0.018353, Final residual = 4.08005e-08, No Iterations 5
DILUPBiCGStab:  Solving for O2, Initial residual = 2.86584e-05, Final residual = 1.10872e-08, No Iterations 1
DILUPBiCGStab:  Solving for H2O, Initial residual = 3.32514e-08, Final residual = 3.32514e-08, No Iterations 0
DILUPBiCGStab:  Solving for CH4, Initial residual = 2.86584e-05, Final residual = 1.10872e-08, No Iterations 1
DILUPBiCGStab:  Solving for CO2, Initial residual = 4.06153e-08, Final residual = 4.06153e-08, No Iterations 0
GAMG:  Solving for G, Initial residual = 0.0562871, Final residual = 3.88315e-05, No Iterations 1000
DILUPBiCGStab:  Solving for h, Initial residual = 0.029526, Final residual = 4.61897e-08, No Iterations 4
Min/max T:299.993 345.012
GAMG:  Solving for p_rgh, Initial residual = 0.0192429, Final residual = 0.000164006, No Iterations 9
diagonal:  Solving for rho, Initial residual = 0, Final residual = 0, No Iterations 0
time step continuity errors : sum local = 5.01028e-07, global = -6.61725e-09, cumulative = -6.61725e-09
GAMG:  Solving for p_rgh, Initial residual = 0.00191346, Final residual = 9.08964e-08, No Iterations 16
diagonal:  Solving for rho, Initial residual = 0, Final residual = 0, No Iterations 0
time step continuity errors : sum local = 4.38894e-10, global = 5.05433e-12, cumulative = -6.61219e-09
DILUPBiCGStab:  Solving for epsilon, Initial residual = 0.01204, Final residual = 5.4742e-08, No Iterations 4
DILUPBiCGStab:  Solving for k, Initial residual = 0.0155223, Final residual = 2.48719e-08, No Iterations 5
Time scales min/max:
    Flow        = 0.001, 0.001
    Temperature = 1.9227e+15, 4.49423e+307
    Overall     = 0.001, 0.001
Time = 11s


Solving for solid region solid
DICPCG:  Solving for e, Initial residual = 0.0105482, Final residual = 0.00101705, No Iterations 1
Min/max T:300 300.058

Solving for fluid region gas
diagonal:  Solving for rho, Initial residual = 0, Final residual = 0, No Iterations 0
DILUPBiCGStab:  Solving for Ux, Initial residual = 0.0190272, Final residual = 3.85473e-08, No Iterations 4
DILUPBiCGStab:  Solving for Uy, Initial residual = 0.0271265, Final residual = 4.73328e-08, No Iterations 4
DILUPBiCGStab:  Solving for Uz, Initial residual = 0.0162976, Final residual = 5.88717e-08, No Iterations 5
DILUPBiCGStab:  Solving for O2, Initial residual = 2.68155e-05, Final residual = 8.71869e-09, No Iterations 1
DILUPBiCGStab:  Solving for H2O, Initial residual = 8.1545e-08, Final residual = 8.1545e-08, No Iterations 0
DILUPBiCGStab:  Solving for CH4, Initial residual = 2.68155e-05, Final residual = 8.71869e-09, No Iterations 1
DILUPBiCGStab:  Solving for CO2, Initial residual = 9.96041e-08, Final residual = 9.96041e-08, No Iterations 0
GAMG:  Solving for G, Initial residual = 0.061382, Final residual = 3.26099e-05, No Iterations 1000
DILUPBiCGStab:  Solving for h, Initial residual = 0.0246096, Final residual = 2.40039e-08, No Iterations 4
Min/max T:300 349.753
GAMG:  Solving for p_rgh, Initial residual = 0.00703266, Final residual = 5.25035e-05, No Iterations 9
diagonal:  Solving for rho, Initial residual = 0, Final residual = 0, No Iterations 0
time step continuity errors : sum local = 2.27958e-07, global = -2.68511e-09, cumulative = -2.68511e-09
GAMG:  Solving for p_rgh, Initial residual = 0.000706989, Final residual = 6.93079e-08, No Iterations 14
diagonal:  Solving for rho, Initial residual = 0, Final residual = 0, No Iterations 0
time step continuity errors : sum local = 5.81228e-10, global = 7.1956e-12, cumulative = -2.67791e-09
DILUPBiCGStab:  Solving for epsilon, Initial residual = 0.0105379, Final residual = 7.09688e-08, No Iterations 4
DILUPBiCGStab:  Solving for k, Initial residual = 0.01348, Final residual = 7.3052e-08, No Iterations 4
Time scales min/max:
    Flow        = 0.001, 0.001
    Temperature = 5.00806e+10, 4.49423e+307
    Overall     = 0.001, 0.001
Time = 12s


Solving for solid region solid
DICPCG:  Solving for e, Initial residual = 0.00966915, Final residual = 0.000940448, No Iterations 1
Min/max T:300 300.067

Solving for fluid region gas
diagonal:  Solving for rho, Initial residual = 0, Final residual = 0, No Iterations 0
DILUPBiCGStab:  Solving for Ux, Initial residual = 0.0361212, Final residual = 2.68519e-08, No Iterations 4
DILUPBiCGStab:  Solving for Uy, Initial residual = 0.0458375, Final residual = 4.50876e-08, No Iterations 4
DILUPBiCGStab:  Solving for Uz, Initial residual = 0.0146033, Final residual = 3.34745e-08, No Iterations 5
DILUPBiCGStab:  Solving for O2, Initial residual = 2.7825e-05, Final residual = 8.984e-09, No Iterations 1
DILUPBiCGStab:  Solving for H2O, Initial residual = 1.97035e-07, Final residual = 1.21976e-09, No Iterations 1
DILUPBiCGStab:  Solving for CH4, Initial residual = 2.7825e-05, Final residual = 8.984e-09, No Iterations 1
DILUPBiCGStab:  Solving for CO2, Initial residual = 2.40671e-07, Final residual = 1.48989e-09, No Iterations 1
GAMG:  Solving for G, Initial residual = 0.0552083, Final residual = 2.77306e-05, No Iterations 1000
DILUPBiCGStab:  Solving for h, Initial residual = 0.01311, Final residual = 4.28894e-08, No Iterations 4
Min/max T:300 354.525
GAMG:  Solving for p_rgh, Initial residual = 0.00133952, Final residual = 1.10973e-05, No Iterations 8
diagonal:  Solving for rho, Initial residual = 0, Final residual = 0, No Iterations 0
time step continuity errors : sum local = 8.98652e-08, global = 1.42463e-08, cumulative = 1.42463e-08
GAMG:  Solving for p_rgh, Initial residual = 0.000514135, Final residual = 9.43797e-08, No Iterations 13
diagonal:  Solving for rho, Initial residual = 0, Final residual = 0, No Iterations 0
time step continuity errors : sum local = 7.1316e-10, global = -1.07118e-10, cumulative = 1.41392e-08
DILUPBiCGStab:  Solving for epsilon, Initial residual = 0.00939438, Final residual = 3.40518e-08, No Iterations 4
DILUPBiCGStab:  Solving for k, Initial residual = 0.0124026, Final residual = 1.2269e-08, No Iterations 5
Time scales min/max:
    Flow        = 0.001, 0.001
    Temperature = 5.20736e+10, 4.49423e+307
    Overall     = 0.001, 0.001
Time = 13s


Solving for solid region solid
DICPCG:  Solving for e, Initial residual = 0.00860942, Final residual = 0.000772245, No Iterations 1
Min/max T:300 300.077

Solving for fluid region gas
diagonal:  Solving for rho, Initial residual = 0, Final residual = 0, No Iterations 0
DILUPBiCGStab:  Solving for Ux, Initial residual = 0.0323952, Final residual = 6.36478e-08, No Iterations 3
DILUPBiCGStab:  Solving for Uy, Initial residual = 0.0398208, Final residual = 2.11642e-08, No Iterations 4
DILUPBiCGStab:  Solving for Uz, Initial residual = 0.0131883, Final residual = 1.88353e-08, No Iterations 5
DILUPBiCGStab:  Solving for O2, Initial residual = 2.7049e-05, Final residual = 9.06258e-09, No Iterations 1
DILUPBiCGStab:  Solving for H2O, Initial residual = 4.71471e-07, Final residual = 2.68187e-09, No Iterations 1
DILUPBiCGStab:  Solving for CH4, Initial residual = 2.7049e-05, Final residual = 9.06258e-09, No Iterations 1
DILUPBiCGStab:  Solving for CO2, Initial residual = 5.75883e-07, Final residual = 3.27579e-09, No Iterations 1
GAMG:  Solving for G, Initial residual = 0.0435178, Final residual = 2.34429e-05, No Iterations 1000
DILUPBiCGStab:  Solving for h, Initial residual = 0.00512344, Final residual = 9.1362e-08, No Iterations 3
Min/max T:300 359.324
GAMG:  Solving for p_rgh, Initial residual = 0.00367002, Final residual = 3.12618e-05, No Iterations 9
diagonal:  Solving for rho, Initial residual = 0, Final residual = 0, No Iterations 0
time step continuity errors : sum local = 2.36726e-07, global = 3.09626e-09, cumulative = 3.09626e-09
GAMG:  Solving for p_rgh, Initial residual = 0.00113931, Final residual = 8.42033e-08, No Iterations 15
diagonal:  Solving for rho, Initial residual = 0, Final residual = 0, No Iterations 0
time step continuity errors : sum local = 3.14838e-10, global = -3.34715e-12, cumulative = 3.09292e-09
DILUPBiCGStab:  Solving for epsilon, Initial residual = 0.00841501, Final residual = 2.12338e-08, No Iterations 4
DILUPBiCGStab:  Solving for k, Initial residual = 0.011631, Final residual = 9.98438e-08, No Iterations 4
Time scales min/max:
    Flow        = 0.001, 0.001
    Temperature = 5.20723e+10, 4.49423e+307
    Overall     = 0.001, 0.001
Time = 14s


Solving for solid region solid
DICPCG:  Solving for e, Initial residual = 0.00770812, Final residual = 0.000579452, No Iterations 1
Min/max T:300 300.087

Solving for fluid region gas
diagonal:  Solving for rho, Initial residual = 0, Final residual = 0, No Iterations 0
DILUPBiCGStab:  Solving for Ux, Initial residual = 0.0166176, Final residual = 3.0661e-08, No Iterations 3
DILUPBiCGStab:  Solving for Uy, Initial residual = 0.0204566, Final residual = 5.90622e-08, No Iterations 3
DILUPBiCGStab:  Solving for Uz, Initial residual = 0.0119877, Final residual = 7.21433e-08, No Iterations 4
DILUPBiCGStab:  Solving for O2, Initial residual = 2.64026e-05, Final residual = 7.92243e-09, No Iterations 1
DILUPBiCGStab:  Solving for H2O, Initial residual = 1.10796e-06, Final residual = 5.66691e-09, No Iterations 1
DILUPBiCGStab:  Solving for CH4, Initial residual = 2.64026e-05, Final residual = 7.92243e-09, No Iterations 1
DILUPBiCGStab:  Solving for CO2, Initial residual = 1.35333e-06, Final residual = 6.9219e-09, No Iterations 1
GAMG:  Solving for G, Initial residual = 0.0338798, Final residual = 2.0232e-05, No Iterations 1000
DILUPBiCGStab:  Solving for h, Initial residual = 0.011029, Final residual = 5.65799e-08, No Iterations 3
Min/max T:300 364.148
GAMG:  Solving for p_rgh, Initial residual = 0.00768816, Final residual = 6.98603e-05, No Iterations 9
diagonal:  Solving for rho, Initial residual = 0, Final residual = 0, No Iterations 0
time step continuity errors : sum local = 2.79432e-07, global = 3.48738e-09, cumulative = 3.48738e-09
GAMG:  Solving for p_rgh, Initial residual = 0.00486816, Final residual = 9.63451e-08, No Iterations 18
diagonal:  Solving for rho, Initial residual = 0, Final residual = 0, No Iterations 0
time step continuity errors : sum local = 7.32391e-11, global = -1.14839e-11, cumulative = 3.4759e-09
DILUPBiCGStab:  Solving for epsilon, Initial residual = 0.00766848, Final residual = 1.49137e-08, No Iterations 4
DILUPBiCGStab:  Solving for k, Initial residual = 0.0108405, Final residual = 6.73211e-08, No Iterations 4
Time scales min/max:
    Flow        = 0.001, 0.001
    Temperature = 1.92253e+15, 4.49423e+307
    Overall     = 0.001, 0.001
Time = 15s


Solving for solid region solid
DICPCG:  Solving for e, Initial residual = 0.00687055, Final residual = 0.000509249, No Iterations 1
Min/max T:300 300.097

Solving for fluid region gas
diagonal:  Solving for rho, Initial residual = 0, Final residual = 0, No Iterations 0
DILUPBiCGStab:  Solving for Ux, Initial residual = 0.0025495, Final residual = 9.18658e-08, No Iterations 3
DILUPBiCGStab:  Solving for Uy, Initial residual = 0.00240964, Final residual = 5.32694e-08, No Iterations 3
DILUPBiCGStab:  Solving for Uz, Initial residual = 0.0109542, Final residual = 4.29533e-08, No Iterations 4
DILUPBiCGStab:  Solving for O2, Initial residual = 2.56743e-05, Final residual = 6.69768e-09, No Iterations 1
DILUPBiCGStab:  Solving for H2O, Initial residual = 2.56616e-06, Final residual = 1.16804e-08, No Iterations 1
DILUPBiCGStab:  Solving for CH4, Initial residual = 2.56743e-05, Final residual = 6.69768e-09, No Iterations 1
DILUPBiCGStab:  Solving for CO2, Initial residual = 3.13445e-06, Final residual = 1.4267e-08, No Iterations 1
GAMG:  Solving for G, Initial residual = 0.033544, Final residual = 1.82879e-05, No Iterations 1000
DILUPBiCGStab:  Solving for h, Initial residual = 0.0119202, Final residual = 8.79935e-08, No Iterations 3
Min/max T:299.997 368.998
GAMG:  Solving for p_rgh, Initial residual = 0.048092, Final residual = 0.000432369, No Iterations 9
diagonal:  Solving for rho, Initial residual = 0, Final residual = 0, No Iterations 0
time step continuity errors : sum local = 2.01426e-07, global = 2.50891e-09, cumulative = 2.50891e-09
GAMG:  Solving for p_rgh, Initial residual = 0.000649403, Final residual = 7.65225e-08, No Iterations 15
diagonal:  Solving for rho, Initial residual = 0, Final residual = 0, No Iterations 0
time step continuity errors : sum local = 2.93974e-10, global = -4.00772e-12, cumulative = 2.50491e-09
DILUPBiCGStab:  Solving for epsilon, Initial residual = 0.00688186, Final residual = 8.6694e-08, No Iterations 3
DILUPBiCGStab:  Solving for k, Initial residual = 0.0100795, Final residual = 4.36232e-08, No Iterations 4
Time scales min/max:
    Flow        = 0.001, 0.001
    Temperature = 5.20569e+10, 4.49423e+307
    Overall     = 0.001, 0.001
Time = 16s


Solving for solid region solid
DICPCG:  Solving for e, Initial residual = 0.00650187, Final residual = 0.000489582, No Iterations 1
Min/max T:300 300.108

Solving for fluid region gas
diagonal:  Solving for rho, Initial residual = 0, Final residual = 0, No Iterations 0
DILUPBiCGStab:  Solving for Ux, Initial residual = 0.0165307, Final residual = 1.25531e-08, No Iterations 3
DILUPBiCGStab:  Solving for Uy, Initial residual = 0.0200556, Final residual = 6.65466e-08, No Iterations 3
DILUPBiCGStab:  Solving for Uz, Initial residual = 0.0100589, Final residual = 2.61121e-08, No Iterations 4
DILUPBiCGStab:  Solving for O2, Initial residual = 2.50907e-05, Final residual = 5.92837e-09, No Iterations 1
DILUPBiCGStab:  Solving for H2O, Initial residual = 5.86902e-06, Final residual = 2.38156e-08, No Iterations 1
DILUPBiCGStab:  Solving for CH4, Initial residual = 2.50907e-05, Final residual = 5.92837e-09, No Iterations 1
DILUPBiCGStab:  Solving for CO2, Initial residual = 7.16864e-06, Final residual = 2.90893e-08, No Iterations 1
GAMG:  Solving for G, Initial residual = 0.0332006, Final residual = 1.58526e-05, No Iterations 1000
DILUPBiCGStab:  Solving for h, Initial residual = 0.00901776, Final residual = 2.79209e-08, No Iterations 3
Min/max T:299.994 373.869
GAMG:  Solving for p_rgh, Initial residual = 0.00198134, Final residual = 1.6191e-05, No Iterations 9
diagonal:  Solving for rho, Initial residual = 0, Final residual = 0, No Iterations 0
time step continuity errors : sum local = 5.87589e-08, global = 7.63157e-10, cumulative = 7.63157e-10
GAMG:  Solving for p_rgh, Initial residual = 0.000204238, Final residual = 8.40762e-08, No Iterations 12
diagonal:  Solving for rho, Initial residual = 0, Final residual = 0, No Iterations 0
time step continuity errors : sum local = 3.84194e-10, global = -6.00442e-11, cumulative = 7.03113e-10
DILUPBiCGStab:  Solving for epsilon, Initial residual = 0.00614698, Final residual = 6.165e-08, No Iterations 3
DILUPBiCGStab:  Solving for k, Initial residual = 0.00937202, Final residual = 2.868e-08, No Iterations 4
Time scales min/max:
    Flow        = 0.001, 0.001
    Temperature = 5.10065e+10, 4.49423e+307
    Overall     = 0.001, 0.001
Time = 17s


Solving for solid region solid
DICPCG:  Solving for e, Initial residual = 0.0060246, Final residual = 0.000444379, No Iterations 1
Min/max T:300 300.119

Solving for fluid region gas
diagonal:  Solving for rho, Initial residual = 0, Final residual = 0, No Iterations 0
DILUPBiCGStab:  Solving for Ux, Initial residual = 0.0210379, Final residual = 4.4271e-08, No Iterations 3
DILUPBiCGStab:  Solving for Uy, Initial residual = 0.0262811, Final residual = 1.46178e-08, No Iterations 3
DILUPBiCGStab:  Solving for Uz, Initial residual = 0.00927727, Final residual = 6.6658e-08, No Iterations 4
DILUPBiCGStab:  Solving for O2, Initial residual = 2.44733e-05, Final residual = 5.30902e-09, No Iterations 1
DILUPBiCGStab:  Solving for H2O, Initial residual = 1.32736e-05, Final residual = 4.7937e-08, No Iterations 1
DILUPBiCGStab:  Solving for CH4, Initial residual = 2.44733e-05, Final residual = 5.30902e-09, No Iterations 1
DILUPBiCGStab:  Solving for CO2, Initial residual = 1.62124e-05, Final residual = 5.85505e-08, No Iterations 1
GAMG:  Solving for G, Initial residual = 0.030473, Final residual = 1.4546e-05, No Iterations 1000
DILUPBiCGStab:  Solving for h, Initial residual = 0.00456764, Final residual = 4.32667e-08, No Iterations 3
Min/max T:299.993 378.759
GAMG:  Solving for p_rgh, Initial residual = 0.00190905, Final residual = 1.68122e-05, No Iterations 9
diagonal:  Solving for rho, Initial residual = 0, Final residual = 0, No Iterations 0
time step continuity errors : sum local = 7.59694e-08, global = -9.30838e-10, cumulative = -9.30838e-10
GAMG:  Solving for p_rgh, Initial residual = 0.000323852, Final residual = 5.58783e-08, No Iterations 14
diagonal:  Solving for rho, Initial residual = 0, Final residual = 0, No Iterations 0
time step continuity errors : sum local = 1.78044e-10, global = 2.78157e-11, cumulative = -9.03022e-10
DILUPBiCGStab:  Solving for epsilon, Initial residual = 0.0055977, Final residual = 4.11396e-08, No Iterations 3
DILUPBiCGStab:  Solving for k, Initial residual = 0.00881856, Final residual = 8.32445e-08, No Iterations 4
Time scales min/max:
    Flow        = 0.001, 0.001
    Temperature = 5.19508e+10, 4.49423e+307
    Overall     = 0.001, 0.001
Time = 18s


Solving for solid region solid
DICPCG:  Solving for e, Initial residual = 0.00562646, Final residual = 0.000380548, No Iterations 1
Min/max T:300 300.13

Solving for fluid region gas
diagonal:  Solving for rho, Initial residual = 0, Final residual = 0, No Iterations 0
DILUPBiCGStab:  Solving for Ux, Initial residual = 0.0152707, Final residual = 3.61014e-08, No Iterations 3
DILUPBiCGStab:  Solving for Uy, Initial residual = 0.0196182, Final residual = 2.29903e-08, No Iterations 3
DILUPBiCGStab:  Solving for Uz, Initial residual = 0.00859295, Final residual = 4.42489e-08, No Iterations 4
DILUPBiCGStab:  Solving for O2, Initial residual = 2.39231e-05, Final residual = 4.65786e-09, No Iterations 1
DILUPBiCGStab:  Solving for H2O, Initial residual = 2.96846e-05, Final residual = 9.56847e-08, No Iterations 1
DILUPBiCGStab:  Solving for CH4, Initial residual = 2.39231e-05, Final residual = 4.65786e-09, No Iterations 1
DILUPBiCGStab:  Solving for CO2, Initial residual = 3.62546e-05, Final residual = 1.40463e-09, No Iterations 1
GAMG:  Solving for G, Initial residual = 0.0267432, Final residual = 1.30235e-05, No Iterations 1000
DILUPBiCGStab:  Solving for h, Initial residual = 0.00494865, Final residual = 5.61409e-08, No Iterations 3
Min/max T:299.994 383.669
GAMG:  Solving for p_rgh, Initial residual = 0.00484079, Final residual = 4.55944e-05, No Iterations 9
diagonal:  Solving for rho, Initial residual = 0, Final residual = 0, No Iterations 0
time step continuity errors : sum local = 1.49798e-07, global = -1.92052e-09, cumulative = -1.92052e-09
GAMG:  Solving for p_rgh, Initial residual = 0.00198112, Final residual = 9.53951e-08, No Iterations 17
diagonal:  Solving for rho, Initial residual = 0, Final residual = 0, No Iterations 0
time step continuity errors : sum local = 7.34362e-11, global = 8.396e-13, cumulative = -1.91968e-09
DILUPBiCGStab:  Solving for epsilon, Initial residual = 0.00524104, Final residual = 2.63544e-08, No Iterations 3
DILUPBiCGStab:  Solving for k, Initial residual = 0.00836417, Final residual = 5.76813e-08, No Iterations 4
Time scales min/max:
    Flow        = 0.001, 0.001
    Temperature = 1.11601e+15, 4.49423e+307
    Overall     = 0.001, 0.001
Time = 19s


Solving for solid region solid
DICPCG:  Solving for e, Initial residual = 0.00523391, Final residual = 0.000323445, No Iterations 1
Min/max T:300 300.142

Solving for fluid region gas
diagonal:  Solving for rho, Initial residual = 0, Final residual = 0, No Iterations 0
DILUPBiCGStab:  Solving for Ux, Initial residual = 0.00393934, Final residual = 6.58845e-08, No Iterations 2
DILUPBiCGStab:  Solving for Uy, Initial residual = 0.00561855, Final residual = 1.35073e-08, No Iterations 2
DILUPBiCGStab:  Solving for Uz, Initial residual = 0.00799073, Final residual = 2.98401e-08, No Iterations 4
DILUPBiCGStab:  Solving for O2, Initial residual = 2.35756e-05, Final residual = 4.34825e-09, No Iterations 1
DILUPBiCGStab:  Solving for H2O, Initial residual = 6.55778e-05, Final residual = 2.15867e-09, No Iterations 1
DILUPBiCGStab:  Solving for CH4, Initial residual = 2.35756e-05, Final residual = 4.34825e-09, No Iterations 1
DILUPBiCGStab:  Solving for CO2, Initial residual = 8.00812e-05, Final residual = 2.63803e-09, No Iterations 1
GAMG:  Solving for G, Initial residual = 0.0245387, Final residual = 1.19742e-05, No Iterations 1000
DILUPBiCGStab:  Solving for h, Initial residual = 0.00649251, Final residual = 6.19277e-08, No Iterations 3
Min/max T:299.997 388.6
GAMG:  Solving for p_rgh, Initial residual = 0.0158322, Final residual = 0.000151128, No Iterations 9
diagonal:  Solving for rho, Initial residual = 0, Final residual = 0, No Iterations 0
time step continuity errors : sum local = 1.42692e-07, global = -1.86495e-09, cumulative = -1.86495e-09
GAMG:  Solving for p_rgh, Initial residual = 0.000942918, Final residual = 7.51655e-08, No Iterations 16
diagonal:  Solving for rho, Initial residual = 0, Final residual = 0, No Iterations 0
time step continuity errors : sum local = 1.07384e-10, global = 1.67028e-11, cumulative = -1.84825e-09
DILUPBiCGStab:  Solving for epsilon, Initial residual = 0.00502806, Final residual = 8.80142e-08, No Iterations 3
DILUPBiCGStab:  Solving for k, Initial residual = 0.00802289, Final residual = 4.02907e-08, No Iterations 4
Time scales min/max:
    Flow        = 0.001, 0.001
    Temperature = 5.20704e+10, 4.49423e+307
    Overall     = 0.001, 0.001
Time = 20s


Solving for solid region solid
DICPCG:  Solving for e, Initial residual = 0.00495202, Final residual = 0.00031305, No Iterations 1
Min/max T:300 300.154

Solving for fluid region gas
diagonal:  Solving for rho, Initial residual = 0, Final residual = 0, No Iterations 0
DILUPBiCGStab:  Solving for Ux, Initial residual = 0.00624536, Final residual = 5.97361e-08, No Iterations 2
DILUPBiCGStab:  Solving for Uy, Initial residual = 0.00729239, Final residual = 3.05677e-08, No Iterations 3
DILUPBiCGStab:  Solving for Uz, Initial residual = 0.00745836, Final residual = 2.03662e-08, No Iterations 4
DILUPBiCGStab:  Solving for O2, Initial residual = 2.34689e-05, Final residual = 4.09369e-09, No Iterations 1
DILUPBiCGStab:  Solving for H2O, Initial residual = 0.000142895, Final residual = 4.0756e-09, No Iterations 1
DILUPBiCGStab:  Solving for CH4, Initial residual = 2.34689e-05, Final residual = 4.09369e-09, No Iterations 1
DILUPBiCGStab:  Solving for CO2, Initial residual = 0.000174442, Final residual = 4.97691e-09, No Iterations 1
GAMG:  Solving for G, Initial residual = 0.0244408, Final residual = 1.0795e-05, No Iterations 1000
DILUPBiCGStab:  Solving for h, Initial residual = 0.00595204, Final residual = 4.79767e-08, No Iterations 3
Min/max T:299.999 393.55
GAMG:  Solving for p_rgh, Initial residual = 0.0062332, Final residual = 5.93684e-05, No Iterations 9
diagonal:  Solving for rho, Initial residual = 0, Final residual = 0, No Iterations 0
time step continuity errors : sum local = 7.62003e-08, global = -1.01039e-09, cumulative = -1.01039e-09
GAMG:  Solving for p_rgh, Initial residual = 0.000283509, Final residual = 6.3322e-08, No Iterations 14
diagonal:  Solving for rho, Initial residual = 0, Final residual = 0, No Iterations 0
time step continuity errors : sum local = 1.58665e-10, global = 2.47419e-11, cumulative = -9.85645e-10
DILUPBiCGStab:  Solving for epsilon, Initial residual = 0.00487222, Final residual = 5.94297e-08, No Iterations 3
DILUPBiCGStab:  Solving for k, Initial residual = 0.00774093, Final residual = 2.85204e-08, No Iterations 4
Time scales min/max:
    Flow        = 0.001, 0.001
    Temperature = 6.85912e+11, 4.49423e+307
    Overall     = 0.001, 0.001
Time = 21s


Solving for solid region solid
DICPCG:  Solving for e, Initial residual = 0.00471199, Final residual = 0.00029628, No Iterations 1
Min/max T:300 300.167

Solving for fluid region gas
diagonal:  Solving for rho, Initial residual = 0, Final residual = 0, No Iterations 0
DILUPBiCGStab:  Solving for Ux, Initial residual = 0.0108013, Final residual = 7.15859e-08, No Iterations 2
DILUPBiCGStab:  Solving for Uy, Initial residual = 0.0135535, Final residual = 2.40373e-08, No Iterations 3
DILUPBiCGStab:  Solving for Uz, Initial residual = 0.00698452, Final residual = 1.4042e-08, No Iterations 4
DILUPBiCGStab:  Solving for O2, Initial residual = 2.33664e-05, Final residual = 4.02485e-09, No Iterations 1
DILUPBiCGStab:  Solving for H2O, Initial residual = 0.00030659, Final residual = 7.65907e-09, No Iterations 1
DILUPBiCGStab:  Solving for CH4, Initial residual = 2.33664e-05, Final residual = 4.02485e-09, No Iterations 1
DILUPBiCGStab:  Solving for CO2, Initial residual = 0.000374017, Final residual = 9.34481e-09, No Iterations 1
GAMG:  Solving for G, Initial residual = 0.023405, Final residual = 9.9325e-06, No Iterations 144
DILUPBiCGStab:  Solving for h, Initial residual = 0.00415448, Final residual = 9.86654e-08, No Iterations 2
Min/max T:300 398.516
GAMG:  Solving for p_rgh, Initial residual = 0.000447356, Final residual = 3.28359e-06, No Iterations 9
diagonal:  Solving for rho, Initial residual = 0, Final residual = 0, No Iterations 0
time step continuity errors : sum local = 7.96729e-09, global = 9.90929e-11, cumulative = 9.90929e-11
GAMG:  Solving for p_rgh, Initial residual = 8.20487e-05, Final residual = 8.6685e-08, No Iterations 9
diagonal:  Solving for rho, Initial residual = 0, Final residual = 0, No Iterations 0
time step continuity errors : sum local = 1.97824e-10, global = 3.49275e-12, cumulative = 1.02586e-10
DILUPBiCGStab:  Solving for epsilon, Initial residual = 0.00474175, Final residual = 4.05423e-08, No Iterations 3
DILUPBiCGStab:  Solving for k, Initial residual = 0.00747467, Final residual = 2.03069e-08, No Iterations 4
Time scales min/max:
    Flow        = 0.001, 0.001
    Temperature = 5.20711e+10, 4.49423e+307
    Overall     = 0.001, 0.001
Time = 22s


Solving for solid region solid
DICPCG:  Solving for e, Initial residual = 0.00447205, Final residual = 0.000270247, No Iterations 1
Min/max T:300 300.179

Solving for fluid region gas
diagonal:  Solving for rho, Initial residual = 0, Final residual = 0, No Iterations 0
DILUPBiCGStab:  Solving for Ux, Initial residual = 0.00965108, Final residual = 5.47427e-08, No Iterations 2
DILUPBiCGStab:  Solving for Uy, Initial residual = 0.0125203, Final residual = 8.49151e-08, No Iterations 2
DILUPBiCGStab:  Solving for Uz, Initial residual = 0.00656032, Final residual = 8.9719e-08, No Iterations 3
DILUPBiCGStab:  Solving for O2, Initial residual = 2.33286e-05, Final residual = 3.94089e-09, No Iterations 1
DILUPBiCGStab:  Solving for H2O, Initial residual = 0.000646122, Final residual = 1.41844e-08, No Iterations 1
DILUPBiCGStab:  Solving for CH4, Initial residual = 2.33286e-05, Final residual = 3.94089e-09, No Iterations 1
DILUPBiCGStab:  Solving for CO2, Initial residual = 0.000787048, Final residual = 1.72794e-08, No Iterations 1
GAMG:  Solving for G, Initial residual = 0.0217008, Final residual = 9.70502e-06, No Iterations 122
DILUPBiCGStab:  Solving for h, Initial residual = 0.00254737, Final residual = 1.89995e-08, No Iterations 2
Min/max T:300 403.496
GAMG:  Solving for p_rgh, Initial residual = 0.00313985, Final residual = 2.96762e-05, No Iterations 9
diagonal:  Solving for rho, Initial residual = 0, Final residual = 0, No Iterations 0
time step continuity errors : sum local = 6.79884e-08, global = 8.86818e-10, cumulative = 8.86818e-10
GAMG:  Solving for p_rgh, Initial residual = 0.000586048, Final residual = 8.60284e-08, No Iterations 15
diagonal:  Solving for rho, Initial residual = 0, Final residual = 0, No Iterations 0
time step continuity errors : sum local = 9.9852e-11, global = -1.13836e-12, cumulative = 8.85679e-10
DILUPBiCGStab:  Solving for epsilon, Initial residual = 0.00458482, Final residual = 2.87099e-08, No Iterations 3
DILUPBiCGStab:  Solving for k, Initial residual = 0.00720794, Final residual = 1.4549e-08, No Iterations 4
Time scales min/max:
    Flow        = 0.001, 0.001
    Temperature = 5.20705e+10, 4.49423e+307
    Overall     = 0.001, 0.001
Time = 23s


Solving for solid region solid
DICPCG:  Solving for e, Initial residual = 0.00424864, Final residual = 0.000240636, No Iterations 1
Min/max T:300 300.192

Solving for fluid region gas
diagonal:  Solving for rho, Initial residual = 0, Final residual = 0, No Iterations 0
DILUPBiCGStab:  Solving for Ux, Initial residual = 0.00493352, Final residual = 2.93055e-08, No Iterations 2
DILUPBiCGStab:  Solving for Uy, Initial residual = 0.00665186, Final residual = 2.00607e-08, No Iterations 2
DILUPBiCGStab:  Solving for Uz, Initial residual = 0.00617839, Final residual = 6.42788e-08, No Iterations 3
DILUPBiCGStab:  Solving for O2, Initial residual = 2.33963e-05, Final residual = 3.8832e-09, No Iterations 1
DILUPBiCGStab:  Solving for H2O, Initial residual = 0.00133217, Final residual = 2.58557e-08, No Iterations 1
DILUPBiCGStab:  Solving for CH4, Initial residual = 2.33963e-05, Final residual = 3.8832e-09, No Iterations 1
DILUPBiCGStab:  Solving for CO2, Initial residual = 0.0016177, Final residual = 3.13985e-08, No Iterations 1
GAMG:  Solving for G, Initial residual = 0.0199819, Final residual = 9.71108e-06, No Iterations 126
DILUPBiCGStab:  Solving for h, Initial residual = 0.00364781, Final residual = 7.06858e-08, No Iterations 2
Min/max T:299.999 408.488
GAMG:  Solving for p_rgh, Initial residual = 0.00721977, Final residual = 6.88221e-05, No Iterations 9
diagonal:  Solving for rho, Initial residual = 0, Final residual = 0, No Iterations 0
time step continuity errors : sum local = 8.5177e-08, global = 1.11653e-09, cumulative = 1.11653e-09
GAMG:  Solving for p_rgh, Initial residual = 0.00425481, Final residual = 7.10053e-08, No Iterations 19
diagonal:  Solving for rho, Initial residual = 0, Final residual = 0, No Iterations 0
time step continuity errors : sum local = 1.33996e-11, global = -1.32261e-13, cumulative = 1.1164e-09
DILUPBiCGStab:  Solving for epsilon, Initial residual = 0.00439479, Final residual = 2.08698e-08, No Iterations 3
DILUPBiCGStab:  Solving for k, Initial residual = 0.00692009, Final residual = 9.04451e-08, No Iterations 3
Time scales min/max:
    Flow        = 0.001, 0.001
    Temperature = 5.20697e+10, 4.49423e+307
    Overall     = 0.001, 0.001
Time = 24s


Solving for solid region solid
DICPCG:  Solving for e, Initial residual = 0.00403145, Final residual = 0.000223247, No Iterations 1
Min/max T:300 300.206

Solving for fluid region gas
diagonal:  Solving for rho, Initial residual = 0, Final residual = 0, No Iterations 0
DILUPBiCGStab:  Solving for Ux, Initial residual = 0.00135344, Final residual = 2.05025e-08, No Iterations 2
DILUPBiCGStab:  Solving for Uy, Initial residual = 0.00062369, Final residual = 9.24503e-08, No Iterations 2
DILUPBiCGStab:  Solving for Uz, Initial residual = 0.00583256, Final residual = 4.63169e-08, No Iterations 3
DILUPBiCGStab:  Solving for O2, Initial residual = 2.33952e-05, Final residual = 3.87377e-09, No Iterations 1
DILUPBiCGStab:  Solving for H2O, Initial residual = 0.00266687, Final residual = 4.679e-08, No Iterations 1
DILUPBiCGStab:  Solving for CH4, Initial residual = 2.33952e-05, Final residual = 3.87377e-09, No Iterations 1
DILUPBiCGStab:  Solving for CO2, Initial residual = 0.0032183, Final residual = 5.64657e-08, No Iterations 1
GAMG:  Solving for G, Initial residual = 0.0193536, Final residual = 9.69535e-06, No Iterations 123
DILUPBiCGStab:  Solving for h, Initial residual = 0.00382591, Final residual = 7.82683e-08, No Iterations 2
Min/max T:299.998 413.491
GAMG:  Solving for p_rgh, Initial residual = 0.0634658, Final residual = 0.000600163, No Iterations 9
diagonal:  Solving for rho, Initial residual = 0, Final residual = 0, No Iterations 0
time step continuity errors : sum local = 6.20128e-08, global = 8.12164e-10, cumulative = 8.12164e-10
GAMG:  Solving for p_rgh, Initial residual = 0.000509717, Final residual = 7.35697e-08, No Iterations 15
diagonal:  Solving for rho, Initial residual = 0, Final residual = 0, No Iterations 0
time step continuity errors : sum local = 8.23507e-11, global = -1.03411e-12, cumulative = 8.1113e-10
DILUPBiCGStab:  Solving for epsilon, Initial residual = 0.00419243, Final residual = 1.56031e-08, No Iterations 3
DILUPBiCGStab:  Solving for k, Initial residual = 0.0066152, Final residual = 6.69077e-08, No Iterations 3
Time scales min/max:
    Flow        = 0.001, 0.001
    Temperature = 5.20691e+10, 4.49423e+307
    Overall     = 0.001, 0.001
Time = 25s


Solving for solid region solid
DICPCG:  Solving for e, Initial residual = 0.0038733, Final residual = 0.000213139, No Iterations 1
Min/max T:300 300.219

Solving for fluid region gas
diagonal:  Solving for rho, Initial residual = 0, Final residual = 0, No Iterations 0
DILUPBiCGStab:  Solving for Ux, Initial residual = 0.0047975, Final residual = 3.13759e-08, No Iterations 2
DILUPBiCGStab:  Solving for Uy, Initial residual = 0.00589888, Final residual = 5.50209e-08, No Iterations 2
DILUPBiCGStab:  Solving for Uz, Initial residual = 0.00551856, Final residual = 3.35532e-08, No Iterations 3
DILUPBiCGStab:  Solving for O2, Initial residual = 2.3326e-05, Final residual = 3.88265e-09, No Iterations 1
DILUPBiCGStab:  Solving for H2O, Initial residual = 0.00511303, Final residual = 8.12998e-08, No Iterations 1
DILUPBiCGStab:  Solving for CH4, Initial residual = 2.3326e-05, Final residual = 3.88265e-09, No Iterations 1
DILUPBiCGStab:  Solving for CO2, Initial residual = 0.00609794, Final residual = 9.69614e-08, No Iterations 1
GAMG:  Solving for G, Initial residual = 0.0188351, Final residual = 9.87556e-06, No Iterations 120
DILUPBiCGStab:  Solving for h, Initial residual = 0.00325169, Final residual = 4.99638e-08, No Iterations 2
Min/max T:299.997 418.505
GAMG:  Solving for p_rgh, Initial residual = 0.00199488, Final residual = 1.71888e-05, No Iterations 9
diagonal:  Solving for rho, Initial residual = 0, Final residual = 0, No Iterations 0
time step continuity errors : sum local = 1.8148e-08, global = 2.36913e-10, cumulative = 2.36913e-10
GAMG:  Solving for p_rgh, Initial residual = 0.000146066, Final residual = 7.89842e-08, No Iterations 12
diagonal:  Solving for rho, Initial residual = 0, Final residual = 0, No Iterations 0
time step continuity errors : sum local = 1.06794e-10, global = -1.66432e-11, cumulative = 2.2027e-10
DILUPBiCGStab:  Solving for epsilon, Initial residual = 0.00402445, Final residual = 1.1982e-08, No Iterations 3
DILUPBiCGStab:  Solving for k, Initial residual = 0.00632129, Final residual = 4.98995e-08, No Iterations 3
Time scales min/max:
    Flow        = 0.001, 0.001
    Temperature = 5.16756e+10, 4.49423e+307
    Overall     = 0.001, 0.001
Time = 26s


Solving for solid region solid
DICPCG:  Solving for e, Initial residual = 0.00371179, Final residual = 0.000200558, No Iterations 1
Min/max T:300 300.233

Solving for fluid region gas
diagonal:  Solving for rho, Initial residual = 0, Final residual = 0, No Iterations 0
DILUPBiCGStab:  Solving for Ux, Initial residual = 0.00599289, Final residual = 3.1495e-08, No Iterations 2
DILUPBiCGStab:  Solving for Uy, Initial residual = 0.00756773, Final residual = 4.28513e-08, No Iterations 2
DILUPBiCGStab:  Solving for Uz, Initial residual = 0.00523301, Final residual = 2.44181e-08, No Iterations 3
DILUPBiCGStab:  Solving for O2, Initial residual = 2.32672e-05, Final residual = 3.92402e-09, No Iterations 1
DILUPBiCGStab:  Solving for H2O, Initial residual = 0.00917981, Final residual = 1.75834e-09, No Iterations 2
DILUPBiCGStab:  Solving for CH4, Initial residual = 2.32672e-05, Final residual = 3.92402e-09, No Iterations 1
DILUPBiCGStab:  Solving for CO2, Initial residual = 0.0107304, Final residual = 2.05542e-09, No Iterations 2
GAMG:  Solving for G, Initial residual = 0.0180229, Final residual = 9.97706e-06, No Iterations 119
DILUPBiCGStab:  Solving for h, Initial residual = 0.00235698, Final residual = 1.84944e-08, No Iterations 2
Min/max T:299.997 423.532
GAMG:  Solving for p_rgh, Initial residual = 0.00189429, Final residual = 1.70757e-05, No Iterations 9
diagonal:  Solving for rho, Initial residual = 0, Final residual = 0, No Iterations 0
time step continuity errors : sum local = 2.27871e-08, global = -2.96534e-10, cumulative = -2.96534e-10
GAMG:  Solving for p_rgh, Initial residual = 0.000278306, Final residual = 5.70457e-08, No Iterations 14
diagonal:  Solving for rho, Initial residual = 0, Final residual = 0, No Iterations 0
time step continuity errors : sum local = 5.43418e-11, global = 8.41684e-12, cumulative = -2.88118e-10
DILUPBiCGStab:  Solving for epsilon, Initial residual = 0.00388816, Final residual = 9.37134e-09, No Iterations 3
DILUPBiCGStab:  Solving for k, Initial residual = 0.00605313, Final residual = 3.74612e-08, No Iterations 3
Time scales min/max:
    Flow        = 0.001, 0.001
    Temperature = 5.19797e+10, 4.49423e+307
    Overall     = 0.001, 0.001
Time = 27s


Solving for solid region solid
DICPCG:  Solving for e, Initial residual = 0.00356269, Final residual = 0.000185912, No Iterations 1
Min/max T:300 300.248

Solving for fluid region gas
diagonal:  Solving for rho, Initial residual = 0, Final residual = 0, No Iterations 0
DILUPBiCGStab:  Solving for Ux, Initial residual = 0.0043853, Final residual = 2.66892e-08, No Iterations 2
DILUPBiCGStab:  Solving for Uy, Initial residual = 0.00559315, Final residual = 1.91714e-08, No Iterations 2
DILUPBiCGStab:  Solving for Uz, Initial residual = 0.00497304, Final residual = 1.78985e-08, No Iterations 3
DILUPBiCGStab:  Solving for O2, Initial residual = 2.32135e-05, Final residual = 4.15268e-09, No Iterations 1
DILUPBiCGStab:  Solving for H2O, Initial residual = 0.0149837, Final residual = 2.49674e-09, No Iterations 2
DILUPBiCGStab:  Solving for CH4, Initial residual = 2.32135e-05, Final residual = 4.15268e-09, No Iterations 1
DILUPBiCGStab:  Solving for CO2, Initial residual = 0.0170096, Final residual = 2.83438e-09, No Iterations 2
GAMG:  Solving for G, Initial residual = 0.0170874, Final residual = 9.84561e-06, No Iterations 120
DILUPBiCGStab:  Solving for h, Initial residual = 0.00236795, Final residual = 2.08203e-08, No Iterations 2
Min/max T:299.997 428.571
GAMG:  Solving for p_rgh, Initial residual = 0.00483815, Final residual = 4.52051e-05, No Iterations 9
diagonal:  Solving for rho, Initial residual = 0, Final residual = 0, No Iterations 0
time step continuity errors : sum local = 4.42794e-08, global = -5.7654e-10, cumulative = -5.7654e-10
GAMG:  Solving for p_rgh, Initial residual = 0.00184243, Final residual = 8.64867e-08, No Iterations 17
diagonal:  Solving for rho, Initial residual = 0, Final residual = 0, No Iterations 0
time step continuity errors : sum local = 2.06623e-11, global = 2.10902e-13, cumulative = -5.76329e-10
DILUPBiCGStab:  Solving for epsilon, Initial residual = 0.00378424, Final residual = 7.44508e-09, No Iterations 3
DILUPBiCGStab:  Solving for k, Initial residual = 0.00581491, Final residual = 2.82763e-08, No Iterations 3
Time scales min/max:
    Flow        = 0.001, 0.001
    Temperature = 5.13182e+10, 4.49423e+307
    Overall     = 0.001, 0.001
Time = 28s


Solving for solid region solid
DICPCG:  Solving for e, Initial residual = 0.00342123, Final residual = 0.000172762, No Iterations 1
Min/max T:300 300.262

Solving for fluid region gas
diagonal:  Solving for rho, Initial residual = 0, Final residual = 0, No Iterations 0
DILUPBiCGStab:  Solving for Ux, Initial residual = 0.00142395, Final residual = 1.69598e-08, No Iterations 2
DILUPBiCGStab:  Solving for Uy, Initial residual = 0.00168158, Final residual = 9.03136e-08, No Iterations 2
DILUPBiCGStab:  Solving for Uz, Initial residual = 0.00473668, Final residual = 8.91456e-08, No Iterations 3
DILUPBiCGStab:  Solving for O2, Initial residual = 2.32227e-05, Final residual = 4.17656e-09, No Iterations 1
DILUPBiCGStab:  Solving for H2O, Initial residual = 0.0216723, Final residual = 3.12281e-09, No Iterations 2
DILUPBiCGStab:  Solving for CH4, Initial residual = 2.32227e-05, Final residual = 4.17656e-09, No Iterations 1
DILUPBiCGStab:  Solving for CO2, Initial residual = 0.0237671, Final residual = 3.4247e-09, No Iterations 2
GAMG:  Solving for G, Initial residual = 0.016392, Final residual = 9.72438e-06, No Iterations 120
DILUPBiCGStab:  Solving for h, Initial residual = 0.00264297, Final residual = 2.89701e-08, No Iterations 2
Min/max T:299.998 433.619
GAMG:  Solving for p_rgh, Initial residual = 0.0154553, Final residual = 0.00014515, No Iterations 9
diagonal:  Solving for rho, Initial residual = 0, Final residual = 0, No Iterations 0
time step continuity errors : sum local = 4.19871e-08, global = -5.48585e-10, cumulative = -5.48585e-10
GAMG:  Solving for p_rgh, Initial residual = 0.000931426, Final residual = 7.02328e-08, No Iterations 16
diagonal:  Solving for rho, Initial residual = 0, Final residual = 0, No Iterations 0
time step continuity errors : sum local = 3.00263e-11, global = 4.64847e-12, cumulative = -5.43936e-10
DILUPBiCGStab:  Solving for epsilon, Initial residual = 0.00368043, Final residual = 8.50089e-08, No Iterations 2
DILUPBiCGStab:  Solving for k, Initial residual = 0.00560383, Final residual = 2.1447e-08, No Iterations 3
Time scales min/max:
    Flow        = 0.001, 0.001
    Temperature = 5.16017e+10, 4.49423e+307
    Overall     = 0.001, 0.001
Time = 29s


Solving for solid region solid
DICPCG:  Solving for e, Initial residual = 0.00330321, Final residual = 0.000166089, No Iterations 1
Min/max T:300 300.277

Solving for fluid region gas
diagonal:  Solving for rho, Initial residual = 0, Final residual = 0, No Iterations 0
DILUPBiCGStab:  Solving for Ux, Initial residual = 0.00193337, Final residual = 9.2337e-08, No Iterations 2
DILUPBiCGStab:  Solving for Uy, Initial residual = 0.00207779, Final residual = 1.05573e-08, No Iterations 2
DILUPBiCGStab:  Solving for Uz, Initial residual = 0.00452128, Final residual = 6.97167e-08, No Iterations 3
DILUPBiCGStab:  Solving for O2, Initial residual = 2.32599e-05, Final residual = 4.23999e-09, No Iterations 1
DILUPBiCGStab:  Solving for H2O, Initial residual = 0.0276341, Final residual = 3.46572e-09, No Iterations 2
DILUPBiCGStab:  Solving for CH4, Initial residual = 2.32599e-05, Final residual = 4.23999e-09, No Iterations 1
DILUPBiCGStab:  Solving for CO2, Initial residual = 0.0293437, Final residual = 3.68017e-09, No Iterations 2
GAMG:  Solving for G, Initial residual = 0.0160257, Final residual = 9.86604e-06, No Iterations 118
DILUPBiCGStab:  Solving for h, Initial residual = 0.0025131, Final residual = 2.51771e-08, No Iterations 2
Min/max T:299.998 438.677
GAMG:  Solving for p_rgh, Initial residual = 0.00626762, Final residual = 5.844e-05, No Iterations 9
diagonal:  Solving for rho, Initial residual = 0, Final residual = 0, No Iterations 0
time step continuity errors : sum local = 2.24794e-08, global = -2.93176e-10, cumulative = -2.93176e-10
GAMG:  Solving for p_rgh, Initial residual = 0.000277172, Final residual = 6.05221e-08, No Iterations 14
diagonal:  Solving for rho, Initial residual = 0, Final residual = 0, No Iterations 0
time step continuity errors : sum local = 4.57455e-11, global = 7.11303e-12, cumulative = -2.86063e-10
DILUPBiCGStab:  Solving for epsilon, Initial residual = 0.0035891, Final residual = 7.08295e-08, No Iterations 2
DILUPBiCGStab:  Solving for k, Initial residual = 0.00541299, Final residual = 9.66386e-08, No Iterations 3
Time scales min/max:
    Flow        = 0.001, 0.001
    Temperature = 3.51789e+11, 4.49423e+307
    Overall     = 0.001, 0.001
Time = 30s


Solving for solid region solid
DICPCG:  Solving for e, Initial residual = 0.00319265, Final residual = 0.000158706, No Iterations 1
Min/max T:300 300.292

Solving for fluid region gas
diagonal:  Solving for rho, Initial residual = 0, Final residual = 0, No Iterations 0
DILUPBiCGStab:  Solving for Ux, Initial residual = 0.00318345, Final residual = 9.77926e-08, No Iterations 2
DILUPBiCGStab:  Solving for Uy, Initial residual = 0.00401632, Final residual = 1.10692e-08, No Iterations 2
DILUPBiCGStab:  Solving for Uz, Initial residual = 0.00432391, Final residual = 5.50554e-08, No Iterations 3
DILUPBiCGStab:  Solving for O2, Initial residual = 2.33325e-05, Final residual = 4.33493e-09, No Iterations 1
DILUPBiCGStab:  Solving for H2O, Initial residual = 0.0316949, Final residual = 3.48039e-09, No Iterations 2
DILUPBiCGStab:  Solving for CH4, Initial residual = 2.33325e-05, Final residual = 4.33493e-09, No Iterations 1
DILUPBiCGStab:  Solving for CO2, Initial residual = 0.0328479, Final residual = 3.60703e-09, No Iterations 2
GAMG:  Solving for G, Initial residual = 0.015535, Final residual = 9.92361e-06, No Iterations 116
DILUPBiCGStab:  Solving for h, Initial residual = 0.00212665, Final residual = 1.7317e-08, No Iterations 2
Min/max T:299.999 443.741
GAMG:  Solving for p_rgh, Initial residual = 0.000378822, Final residual = 2.59517e-06, No Iterations 9
diagonal:  Solving for rho, Initial residual = 0, Final residual = 0, No Iterations 0
time step continuity errors : sum local = 1.90069e-09, global = 2.46423e-11, cumulative = 2.46423e-11
GAMG:  Solving for p_rgh, Initial residual = 6.84317e-05, Final residual = 8.34138e-08, No Iterations 9
diagonal:  Solving for rho, Initial residual = 0, Final residual = 0, No Iterations 0
time step continuity errors : sum local = 5.8247e-11, global = 5.50434e-13, cumulative = 2.51927e-11
DILUPBiCGStab:  Solving for epsilon, Initial residual = 0.00349436, Final residual = 5.89701e-08, No Iterations 2
DILUPBiCGStab:  Solving for k, Initial residual = 0.00523705, Final residual = 7.61774e-08, No Iterations 3
Time scales min/max:
    Flow        = 0.001, 0.001
    Temperature = 5.207e+10, 4.49423e+307
    Overall     = 0.001, 0.001
Time = 31s


Solving for solid region solid
DICPCG:  Solving for e, Initial residual = 0.00309015, Final residual = 0.000150183, No Iterations 1
Min/max T:300 300.307

Solving for fluid region gas
diagonal:  Solving for rho, Initial residual = 0, Final residual = 0, No Iterations 0
DILUPBiCGStab:  Solving for Ux, Initial residual = 0.00296691, Final residual = 8.71354e-08, No Iterations 2
DILUPBiCGStab:  Solving for Uy, Initial residual = 0.00381449, Final residual = 1.03613e-08, No Iterations 2
DILUPBiCGStab:  Solving for Uz, Initial residual = 0.00414245, Final residual = 4.38315e-08, No Iterations 3
DILUPBiCGStab:  Solving for O2, Initial residual = 2.34124e-05, Final residual = 4.47571e-09, No Iterations 1
DILUPBiCGStab:  Solving for H2O, Initial residual = 0.0337679, Final residual = 3.26289e-09, No Iterations 2
DILUPBiCGStab:  Solving for CH4, Initial residual = 2.34124e-05, Final residual = 4.47571e-09, No Iterations 1
DILUPBiCGStab:  Solving for CO2, Initial residual = 0.0344536, Final residual = 3.32917e-09, No Iterations 2
GAMG:  Solving for G, Initial residual = 0.0149576, Final residual = 9.66307e-06, No Iterations 117
DILUPBiCGStab:  Solving for h, Initial residual = 0.00175415, Final residual = 3.06394e-08, No Iterations 2
Min/max T:299.999 448.811
GAMG:  Solving for p_rgh, Initial residual = 0.00296702, Final residual = 2.78758e-05, No Iterations 9
diagonal:  Solving for rho, Initial residual = 0, Final residual = 0, No Iterations 0
time step continuity errors : sum local = 1.95285e-08, global = 2.52702e-10, cumulative = 2.52702e-10
GAMG:  Solving for p_rgh, Initial residual = 0.000525778, Final residual = 7.3725e-08, No Iterations 15
diagonal:  Solving for rho, Initial residual = 0, Final residual = 0, No Iterations 0
time step continuity errors : sum local = 2.73134e-11, global = -3.09154e-13, cumulative = 2.52393e-10
DILUPBiCGStab:  Solving for epsilon, Initial residual = 0.00340763, Final residual = 4.97518e-08, No Iterations 2
DILUPBiCGStab:  Solving for k, Initial residual = 0.00506497, Final residual = 6.03231e-08, No Iterations 3
Time scales min/max:
    Flow        = 0.001, 0.001
    Temperature = 5.20264e+10, 4.49423e+307
    Overall     = 0.001, 0.001
Time = 32s


Solving for solid region solid
DICPCG:  Solving for e, Initial residual = 0.00299055, Final residual = 0.00014132, No Iterations 1
Min/max T:300 300.323

Solving for fluid region gas
diagonal:  Solving for rho, Initial residual = 0, Final residual = 0, No Iterations 0
DILUPBiCGStab:  Solving for Ux, Initial residual = 0.0017873, Final residual = 6.8417e-08, No Iterations 2
DILUPBiCGStab:  Solving for Uy, Initial residual = 0.00209365, Final residual = 5.57556e-09, No Iterations 2
DILUPBiCGStab:  Solving for Uz, Initial residual = 0.00397516, Final residual = 3.51861e-08, No Iterations 3
DILUPBiCGStab:  Solving for O2, Initial residual = 2.34811e-05, Final residual = 4.64574e-09, No Iterations 1
DILUPBiCGStab:  Solving for H2O, Initial residual = 0.0343994, Final residual = 2.94483e-09, No Iterations 2
DILUPBiCGStab:  Solving for CH4, Initial residual = 2.34811e-05, Final residual = 4.64574e-09, No Iterations 1
DILUPBiCGStab:  Solving for CO2, Initial residual = 0.0347796, Final residual = 2.97739e-09, No Iterations 2
GAMG:  Solving for G, Initial residual = 0.0143858, Final residual = 9.53414e-06, No Iterations 116
DILUPBiCGStab:  Solving for h, Initial residual = 0.00195094, Final residual = 1.57889e-08, No Iterations 2
Min/max T:299.998 453.883
GAMG:  Solving for p_rgh, Initial residual = 0.0067057, Final residual = 6.3114e-05, No Iterations 9
diagonal:  Solving for rho, Initial residual = 0, Final residual = 0, No Iterations 0
time step continuity errors : sum local = 2.47718e-08, global = 3.21281e-10, cumulative = 3.21281e-10
GAMG:  Solving for p_rgh, Initial residual = 0.00593694, Final residual = 9.30354e-08, No Iterations 19
diagonal:  Solving for rho, Initial residual = 0, Final residual = 0, No Iterations 0
time step continuity errors : sum local = 3.68508e-12, global = -3.59832e-14, cumulative = 3.21245e-10
DILUPBiCGStab:  Solving for epsilon, Initial residual = 0.00331122, Final residual = 4.2351e-08, No Iterations 2
DILUPBiCGStab:  Solving for k, Initial residual = 0.00489405, Final residual = 4.82526e-08, No Iterations 3
Time scales min/max:
    Flow        = 0.001, 0.001
    Temperature = 5.19703e+10, 4.49423e+307
    Overall     = 0.001, 0.001
Time = 33s


Solving for solid region solid
DICPCG:  Solving for e, Initial residual = 0.00289448, Final residual = 0.000134064, No Iterations 1
Min/max T:300 300.339

Solving for fluid region gas
diagonal:  Solving for rho, Initial residual = 0, Final residual = 0, No Iterations 0
DILUPBiCGStab:  Solving for Ux, Initial residual = 0.00117766, Final residual = 7.58187e-08, No Iterations 2
DILUPBiCGStab:  Solving for Uy, Initial residual = 0.000231269, Final residual = 1.64652e-08, No Iterations 2
DILUPBiCGStab:  Solving for Uz, Initial residual = 0.00382042, Final residual = 2.84743e-08, No Iterations 3
DILUPBiCGStab:  Solving for O2, Initial residual = 2.3531e-05, Final residual = 4.83356e-09, No Iterations 1
DILUPBiCGStab:  Solving for H2O, Initial residual = 0.0341777, Final residual = 2.59928e-09, No Iterations 2
DILUPBiCGStab:  Solving for CH4, Initial residual = 2.3531e-05, Final residual = 4.83356e-09, No Iterations 1
DILUPBiCGStab:  Solving for CO2, Initial residual = 0.0343815, Final residual = 2.61479e-09, No Iterations 2
GAMG:  Solving for G, Initial residual = 0.0139733, Final residual = 9.57211e-06, No Iterations 114
DILUPBiCGStab:  Solving for h, Initial residual = 0.00196341, Final residual = 1.65034e-08, No Iterations 2
Min/max T:299.998 458.958
GAMG:  Solving for p_rgh, Initial residual = 0.137033, Final residual = 0.00126604, No Iterations 9
diagonal:  Solving for rho, Initial residual = 0, Final residual = 0, No Iterations 0
time step continuity errors : sum local = 1.82979e-08, global = 2.37752e-10, cumulative = 2.37752e-10
GAMG:  Solving for p_rgh, Initial residual = 0.000534752, Final residual = 7.2864e-08, No Iterations 15
diagonal:  Solving for rho, Initial residual = 0, Final residual = 0, No Iterations 0
time step continuity errors : sum local = 2.32809e-11, global = -2.88791e-13, cumulative = 2.37463e-10
DILUPBiCGStab:  Solving for epsilon, Initial residual = 0.0032131, Final residual = 3.63283e-08, No Iterations 2
DILUPBiCGStab:  Solving for k, Initial residual = 0.00472625, Final residual = 3.89406e-08, No Iterations 3
Time scales min/max:
    Flow        = 0.001, 0.001
    Temperature = 2.87267e+10, 4.49423e+307
    Overall     = 0.001, 0.001
Time = 34s


Solving for solid region solid
DICPCG:  Solving for e, Initial residual = 0.00280649, Final residual = 0.000128543, No Iterations 1
Min/max T:300 300.355

Solving for fluid region gas
diagonal:  Solving for rho, Initial residual = 0, Final residual = 0, No Iterations 0
DILUPBiCGStab:  Solving for Ux, Initial residual = 0.00148021, Final residual = 8.5798e-08, No Iterations 2
DILUPBiCGStab:  Solving for Uy, Initial residual = 0.00169644, Final residual = 5.12336e-09, No Iterations 2
DILUPBiCGStab:  Solving for Uz, Initial residual = 0.00367704, Final residual = 2.32638e-08, No Iterations 3
DILUPBiCGStab:  Solving for O2, Initial residual = 2.35561e-05, Final residual = 5.03746e-09, No Iterations 1
DILUPBiCGStab:  Solving for H2O, Initial residual = 0.0335113, Final residual = 2.27018e-09, No Iterations 2
DILUPBiCGStab:  Solving for CH4, Initial residual = 2.35561e-05, Final residual = 5.03746e-09, No Iterations 1
DILUPBiCGStab:  Solving for CO2, Initial residual = 0.0336193, Final residual = 2.2775e-09, No Iterations 2
GAMG:  Solving for G, Initial residual = 0.0136106, Final residual = 9.74523e-06, No Iterations 114
DILUPBiCGStab:  Solving for h, Initial residual = 0.00181932, Final residual = 1.44649e-08, No Iterations 2
Min/max T:299.998 464.033
GAMG:  Solving for p_rgh, Initial residual = 0.0022823, Final residual = 1.87376e-05, No Iterations 9
diagonal:  Solving for rho, Initial residual = 0, Final residual = 0, No Iterations 0
time step continuity errors : sum local = 5.63003e-09, global = 7.34955e-11, cumulative = 7.34955e-11
GAMG:  Solving for p_rgh, Initial residual = 0.000157621, Final residual = 7.9864e-08, No Iterations 12
diagonal:  Solving for rho, Initial residual = 0, Final residual = 0, No Iterations 0
time step continuity errors : sum local = 3.14362e-11, global = -4.88955e-12, cumulative = 6.86059e-11
DILUPBiCGStab:  Solving for epsilon, Initial residual = 0.0031246, Final residual = 3.13756e-08, No Iterations 2
DILUPBiCGStab:  Solving for k, Initial residual = 0.0045648, Final residual = 3.18226e-08, No Iterations 3
Time scales min/max:
    Flow        = 0.001, 0.001
    Temperature = 1.58186e+10, 4.49423e+307
    Overall     = 0.001, 0.001
Time = 35s


Solving for solid region solid
DICPCG:  Solving for e, Initial residual = 0.00272435, Final residual = 0.000122979, No Iterations 1
Min/max T:300 300.372

Solving for fluid region gas
diagonal:  Solving for rho, Initial residual = 0, Final residual = 0, No Iterations 0
DILUPBiCGStab:  Solving for Ux, Initial residual = 0.00179503, Final residual = 8.99375e-08, No Iterations 2
DILUPBiCGStab:  Solving for Uy, Initial residual = 0.00218678, Final residual = 5.91474e-09, No Iterations 2
[...]
diagonal:  Solving for rho, Initial residual = 0, Final residual = 0, No Iterations 0
time step continuity errors : sum local = 1.39131e-12, global = -7.78108e-15, cumulative = 1.45621e-10
DILUPBiCGStab:  Solving for epsilon, Initial residual = 0.000641771, Final residual = 8.56518e-09, No Iterations 2
DILUPBiCGStab:  Solving for k, Initial residual = 0.000580975, Final residual = 1.03056e-08, No Iterations 2
Time scales min/max:
    Flow        = 0.001, 0.001
    Temperature = 0.00253076, 4.49423e+307
    Overall     = 0.001, 0.001
Time = 615s


Solving for solid region solid
DICPCG:  Solving for e, Initial residual = 9.49024e-05, Final residual = 2.91411e-06, No Iterations 1
Min/max T:300.001 323.388

Solving for fluid region gas
diagonal:  Solving for rho, Initial residual = 0, Final residual = 0, No Iterations 0
DILUPBiCGStab:  Solving for Ux, Initial residual = 0.000386781, Final residual = 9.05479e-08, No Iterations 1
DILUPBiCGStab:  Solving for Uy, Initial residual = 8.99886e-05, Final residual = 3.33477e-08, No Iterations 1
DILUPBiCGStab:  Solving for Uz, Initial residual = 0.000313925, Final residual = 1.1299e-08, No Iterations 2
DILUPBiCGStab:  Solving for O2, Initial residual = 4.99218e-05, Final residual = 7.8358e-09, No Iterations 1
DILUPBiCGStab:  Solving for H2O, Initial residual = 0.000167056, Final residual = 3.15225e-08, No Iterations 1
DILUPBiCGStab:  Solving for CH4, Initial residual = 2.19712e-05, Final residual = 5.00741e-08, No Iterations 1
DILUPBiCGStab:  Solving for CO2, Initial residual = 0.000167056, Final residual = 3.15225e-08, No Iterations 1
GAMG:  Solving for G, Initial residual = 0.00061837, Final residual = 9.80915e-06, No Iterations 57
DILUPBiCGStab:  Solving for h, Initial residual = 0.000126766, Final residual = 1.53255e-08, No Iterations 1
Min/max T:300 2132.93
GAMG:  Solving for p_rgh, Initial residual = 0.00536543, Final residual = 3.80517e-05, No Iterations 7
diagonal:  Solving for rho, Initial residual = 0, Final residual = 0, No Iterations 0
time step continuity errors : sum local = 7.87905e-10, global = 9.32743e-12, cumulative = 9.32743e-12
GAMG:  Solving for p_rgh, Initial residual = 0.000418581, Final residual = 6.03239e-08, No Iterations 13
diagonal:  Solving for rho, Initial residual = 0, Final residual = 0, No Iterations 0
time step continuity errors : sum local = 1.07158e-12, global = -1.07224e-14, cumulative = 9.31671e-12
DILUPBiCGStab:  Solving for epsilon, Initial residual = 0.000642119, Final residual = 8.48214e-09, No Iterations 2
DILUPBiCGStab:  Solving for k, Initial residual = 0.000580435, Final residual = 1.01995e-08, No Iterations 2
Time scales min/max:
    Flow        = 0.001, 0.001
    Temperature = 0.00253021, 4.49423e+307
    Overall     = 0.001, 0.001
Time = 616s


Solving for solid region solid
DICPCG:  Solving for e, Initial residual = 9.46289e-05, Final residual = 2.90545e-06, No Iterations 1
Min/max T:300.001 323.408

Solving for fluid region gas
diagonal:  Solving for rho, Initial residual = 0, Final residual = 0, No Iterations 0
DILUPBiCGStab:  Solving for Ux, Initial residual = 0.000387906, Final residual = 9.02477e-08, No Iterations 1
DILUPBiCGStab:  Solving for Uy, Initial residual = 9.71608e-05, Final residual = 3.63887e-08, No Iterations 1
DILUPBiCGStab:  Solving for Uz, Initial residual = 0.000313468, Final residual = 1.12862e-08, No Iterations 2
DILUPBiCGStab:  Solving for O2, Initial residual = 4.98687e-05, Final residual = 7.85602e-09, No Iterations 1
DILUPBiCGStab:  Solving for H2O, Initial residual = 0.000166529, Final residual = 3.15052e-08, No Iterations 1
DILUPBiCGStab:  Solving for CH4, Initial residual = 2.19637e-05, Final residual = 5.01546e-08, No Iterations 1
DILUPBiCGStab:  Solving for CO2, Initial residual = 0.000166529, Final residual = 3.15052e-08, No Iterations 1
GAMG:  Solving for G, Initial residual = 0.000615302, Final residual = 9.75467e-06, No Iterations 57
DILUPBiCGStab:  Solving for h, Initial residual = 0.000126482, Final residual = 1.53118e-08, No Iterations 1
Min/max T:300 2132.79
GAMG:  Solving for p_rgh, Initial residual = 0.00443338, Final residual = 3.56649e-05, No Iterations 7
diagonal:  Solving for rho, Initial residual = 0, Final residual = 0, No Iterations 0
time step continuity errors : sum local = 6.37095e-10, global = -9.80406e-12, cumulative = -9.80406e-12
GAMG:  Solving for p_rgh, Initial residual = 0.000281781, Final residual = 9.80563e-08, No Iterations 10
diagonal:  Solving for rho, Initial residual = 0, Final residual = 0, No Iterations 0
time step continuity errors : sum local = 2.1495e-12, global = 3.32205e-14, cumulative = -9.77084e-12
DILUPBiCGStab:  Solving for epsilon, Initial residual = 0.000637269, Final residual = 8.48074e-09, No Iterations 2
DILUPBiCGStab:  Solving for k, Initial residual = 0.000579671, Final residual = 1.00885e-08, No Iterations 2
Time scales min/max:
    Flow        = 0.001, 0.001
    Temperature = 0.00252971, 4.49423e+307
    Overall     = 0.001, 0.001
Time = 617s


Solving for solid region solid
DICPCG:  Solving for e, Initial residual = 9.43564e-05, Final residual = 2.89695e-06, No Iterations 1
Min/max T:300.001 323.429

Solving for fluid region gas
diagonal:  Solving for rho, Initial residual = 0, Final residual = 0, No Iterations 0
DILUPBiCGStab:  Solving for Ux, Initial residual = 0.000386852, Final residual = 9.14191e-08, No Iterations 1
DILUPBiCGStab:  Solving for Uy, Initial residual = 9.41514e-05, Final residual = 3.64811e-08, No Iterations 1
DILUPBiCGStab:  Solving for Uz, Initial residual = 0.000313022, Final residual = 1.12736e-08, No Iterations 2
DILUPBiCGStab:  Solving for O2, Initial residual = 4.98122e-05, Final residual = 7.86968e-09, No Iterations 1
DILUPBiCGStab:  Solving for H2O, Initial residual = 0.000166, Final residual = 3.14336e-08, No Iterations 1
DILUPBiCGStab:  Solving for CH4, Initial residual = 2.19588e-05, Final residual = 5.02443e-08, No Iterations 1
DILUPBiCGStab:  Solving for CO2, Initial residual = 0.000166, Final residual = 3.14336e-08, No Iterations 1
GAMG:  Solving for G, Initial residual = 0.000611706, Final residual = 9.69309e-06, No Iterations 57
DILUPBiCGStab:  Solving for h, Initial residual = 0.000126229, Final residual = 1.53184e-08, No Iterations 1
Min/max T:300 2132.65
GAMG:  Solving for p_rgh, Initial residual = 0.00384995, Final residual = 3.28061e-05, No Iterations 8
diagonal:  Solving for rho, Initial residual = 0, Final residual = 0, No Iterations 0
time step continuity errors : sum local = 7.12966e-10, global = -1.02028e-10, cumulative = -1.02028e-10
GAMG:  Solving for p_rgh, Initial residual = 0.000228543, Final residual = 6.36998e-08, No Iterations 12
diagonal:  Solving for rho, Initial residual = 0, Final residual = 0, No Iterations 0
time step continuity errors : sum local = 1.83646e-12, global = 2.51288e-13, cumulative = -1.01776e-10
DILUPBiCGStab:  Solving for epsilon, Initial residual = 0.000640663, Final residual = 8.37932e-09, No Iterations 2
DILUPBiCGStab:  Solving for k, Initial residual = 0.000578867, Final residual = 9.97616e-09, No Iterations 2
Time scales min/max:
    Flow        = 0.001, 0.001
    Temperature = 0.00252922, 4.49423e+307
    Overall     = 0.001, 0.001
Time = 618s


Solving for solid region solid
DICPCG:  Solving for e, Initial residual = 9.40849e-05, Final residual = 2.88855e-06, No Iterations 1
Min/max T:300.001 323.45

Solving for fluid region gas
diagonal:  Solving for rho, Initial residual = 0, Final residual = 0, No Iterations 0
DILUPBiCGStab:  Solving for Ux, Initial residual = 0.000385187, Final residual = 9.27392e-08, No Iterations 1
DILUPBiCGStab:  Solving for Uy, Initial residual = 0.000118323, Final residual = 4.42915e-08, No Iterations 1
DILUPBiCGStab:  Solving for Uz, Initial residual = 0.000312584, Final residual = 1.12612e-08, No Iterations 2
DILUPBiCGStab:  Solving for O2, Initial residual = 4.97638e-05, Final residual = 7.88398e-09, No Iterations 1
DILUPBiCGStab:  Solving for H2O, Initial residual = 0.00016553, Final residual = 3.13801e-08, No Iterations 1
DILUPBiCGStab:  Solving for CH4, Initial residual = 2.19552e-05, Final residual = 5.03235e-08, No Iterations 1
DILUPBiCGStab:  Solving for CO2, Initial residual = 0.00016553, Final residual = 3.13801e-08, No Iterations 1
GAMG:  Solving for G, Initial residual = 0.0006081, Final residual = 9.63067e-06, No Iterations 57
DILUPBiCGStab:  Solving for h, Initial residual = 0.000126016, Final residual = 1.53437e-08, No Iterations 1
Min/max T:300 2132.49
GAMG:  Solving for p_rgh, Initial residual = 0.00238409, Final residual = 2.06628e-05, No Iterations 8
diagonal:  Solving for rho, Initial residual = 0, Final residual = 0, No Iterations 0
time step continuity errors : sum local = 5.88984e-10, global = -8.32638e-11, cumulative = -8.32638e-11
GAMG:  Solving for p_rgh, Initial residual = 0.000138889, Final residual = 6.51164e-08, No Iterations 11
diagonal:  Solving for rho, Initial residual = 0, Final residual = 0, No Iterations 0
time step continuity errors : sum local = 2.28953e-12, global = -7.90575e-15, cumulative = -8.32717e-11
DILUPBiCGStab:  Solving for epsilon, Initial residual = 0.000637044, Final residual = 8.37866e-09, No Iterations 2
DILUPBiCGStab:  Solving for k, Initial residual = 0.000578371, Final residual = 9.86224e-09, No Iterations 2
Time scales min/max:
    Flow        = 0.001, 0.001
    Temperature = 0.00252873, 4.49423e+307
    Overall     = 0.001, 0.001
Time = 619s


Solving for solid region solid
DICPCG:  Solving for e, Initial residual = 9.38136e-05, Final residual = 2.87995e-06, No Iterations 1
Min/max T:300.001 323.471

Solving for fluid region gas
diagonal:  Solving for rho, Initial residual = 0, Final residual = 0, No Iterations 0
DILUPBiCGStab:  Solving for Ux, Initial residual = 0.000383749, Final residual = 9.30847e-08, No Iterations 1
DILUPBiCGStab:  Solving for Uy, Initial residual = 0.000143919, Final residual = 5.26976e-08, No Iterations 1
DILUPBiCGStab:  Solving for Uz, Initial residual = 0.000312144, Final residual = 1.12478e-08, No Iterations 2
DILUPBiCGStab:  Solving for O2, Initial residual = 4.97286e-05, Final residual = 7.89371e-09, No Iterations 1
DILUPBiCGStab:  Solving for H2O, Initial residual = 0.000165144, Final residual = 3.13192e-08, No Iterations 1
DILUPBiCGStab:  Solving for CH4, Initial residual = 2.19497e-05, Final residual = 5.0412e-08, No Iterations 1
DILUPBiCGStab:  Solving for CO2, Initial residual = 0.000165144, Final residual = 3.13192e-08, No Iterations 1
GAMG:  Solving for G, Initial residual = 0.000604533, Final residual = 9.56611e-06, No Iterations 57
DILUPBiCGStab:  Solving for h, Initial residual = 0.000125816, Final residual = 1.5355e-08, No Iterations 1
Min/max T:300 2132.32
GAMG:  Solving for p_rgh, Initial residual = 0.00176122, Final residual = 1.59164e-05, No Iterations 7
diagonal:  Solving for rho, Initial residual = 0, Final residual = 0, No Iterations 0
time step continuity errors : sum local = 5.55004e-10, global = -8.56419e-12, cumulative = -8.56419e-12
GAMG:  Solving for p_rgh, Initial residual = 0.000137852, Final residual = 8.76374e-08, No Iterations 10
diagonal:  Solving for rho, Initial residual = 0, Final residual = 0, No Iterations 0
time step continuity errors : sum local = 3.43546e-12, global = 3.19805e-14, cumulative = -8.53221e-12
DILUPBiCGStab:  Solving for epsilon, Initial residual = 0.000637825, Final residual = 8.29159e-09, No Iterations 2
DILUPBiCGStab:  Solving for k, Initial residual = 0.000577831, Final residual = 9.75959e-09, No Iterations 2
Time scales min/max:
    Flow        = 0.001, 0.001
    Temperature = 0.00252824, 4.49423e+307
    Overall     = 0.001, 0.001
Time = 620s


Solving for solid region solid
DICPCG:  Solving for e, Initial residual = 9.35423e-05, Final residual = 2.87129e-06, No Iterations 1
Min/max T:300.001 323.491

Solving for fluid region gas
diagonal:  Solving for rho, Initial residual = 0, Final residual = 0, No Iterations 0
DILUPBiCGStab:  Solving for Ux, Initial residual = 0.000382655, Final residual = 9.24696e-08, No Iterations 1
DILUPBiCGStab:  Solving for Uy, Initial residual = 0.000160363, Final residual = 5.91969e-08, No Iterations 1
DILUPBiCGStab:  Solving for Uz, Initial residual = 0.00031171, Final residual = 1.12339e-08, No Iterations 2
DILUPBiCGStab:  Solving for O2, Initial residual = 4.97196e-05, Final residual = 7.91278e-09, No Iterations 1
DILUPBiCGStab:  Solving for H2O, Initial residual = 0.000164904, Final residual = 3.13245e-08, No Iterations 1
DILUPBiCGStab:  Solving for CH4, Initial residual = 2.19444e-05, Final residual = 5.04725e-08, No Iterations 1
DILUPBiCGStab:  Solving for CO2, Initial residual = 0.000164904, Final residual = 3.13245e-08, No Iterations 1
GAMG:  Solving for G, Initial residual = 0.000601326, Final residual = 9.50769e-06, No Iterations 57
DILUPBiCGStab:  Solving for h, Initial residual = 0.000125711, Final residual = 1.5357e-08, No Iterations 1
Min/max T:300 2132.15
GAMG:  Solving for p_rgh, Initial residual = 0.00177844, Final residual = 1.01626e-05, No Iterations 6
diagonal:  Solving for rho, Initial residual = 0, Final residual = 0, No Iterations 0
time step continuity errors : sum local = 3.9641e-10, global = -2.00401e-11, cumulative = -2.00401e-11
GAMG:  Solving for p_rgh, Initial residual = 0.000162493, Final residual = 9.42092e-08, No Iterations 11
diagonal:  Solving for rho, Initial residual = 0, Final residual = 0, No Iterations 0
time step continuity errors : sum local = 3.89677e-12, global = -5.75061e-13, cumulative = -2.06151e-11
DILUPBiCGStab:  Solving for epsilon, Initial residual = 0.00063731, Final residual = 8.20185e-09, No Iterations 2
DILUPBiCGStab:  Solving for k, Initial residual = 0.00057704, Final residual = 9.65051e-09, No Iterations 2
Time scales min/max:
    Flow        = 0.001, 0.001
    Temperature = 0.00252777, 4.49423e+307
    Overall     = 0.001, 0.001
Time = 621s


Solving for solid region solid
DICPCG:  Solving for e, Initial residual = 9.32712e-05, Final residual = 2.86263e-06, No Iterations 1
Min/max T:300.001 323.511

Solving for fluid region gas
diagonal:  Solving for rho, Initial residual = 0, Final residual = 0, No Iterations 0
DILUPBiCGStab:  Solving for Ux, Initial residual = 0.000384589, Final residual = 9.21178e-08, No Iterations 1
DILUPBiCGStab:  Solving for Uy, Initial residual = 0.000168774, Final residual = 6.43711e-08, No Iterations 1
DILUPBiCGStab:  Solving for Uz, Initial residual = 0.000311276, Final residual = 1.12194e-08, No Iterations 2
DILUPBiCGStab:  Solving for O2, Initial residual = 4.97644e-05, Final residual = 7.92752e-09, No Iterations 1
DILUPBiCGStab:  Solving for H2O, Initial residual = 0.000164739, Final residual = 3.13029e-08, No Iterations 1
DILUPBiCGStab:  Solving for CH4, Initial residual = 2.19529e-05, Final residual = 5.05484e-08, No Iterations 1
DILUPBiCGStab:  Solving for CO2, Initial residual = 0.000164739, Final residual = 3.13029e-08, No Iterations 1
GAMG:  Solving for G, Initial residual = 0.000597763, Final residual = 9.44584e-06, No Iterations 57
DILUPBiCGStab:  Solving for h, Initial residual = 0.000125616, Final residual = 1.53665e-08, No Iterations 1
Min/max T:300 2131.97
GAMG:  Solving for p_rgh, Initial residual = 0.00124532, Final residual = 1.22043e-05, No Iterations 5
diagonal:  Solving for rho, Initial residual = 0, Final residual = 0, No Iterations 0
time step continuity errors : sum local = 5.03031e-10, global = 3.40187e-11, cumulative = 3.40187e-11
GAMG:  Solving for p_rgh, Initial residual = 0.000126535, Final residual = 9.08157e-08, No Iterations 9
diagonal:  Solving for rho, Initial residual = 0, Final residual = 0, No Iterations 0
time step continuity errors : sum local = 3.86649e-12, global = -5.47356e-13, cumulative = 3.34713e-11
DILUPBiCGStab:  Solving for epsilon, Initial residual = 0.000636792, Final residual = 8.18019e-09, No Iterations 2
DILUPBiCGStab:  Solving for k, Initial residual = 0.000576562, Final residual = 9.54655e-09, No Iterations 2
Time scales min/max:
    Flow        = 0.001, 0.001
    Temperature = 0.00252732, 4.49423e+307
    Overall     = 0.001, 0.001
Time = 622s


Solving for solid region solid
DICPCG:  Solving for e, Initial residual = 9.30005e-05, Final residual = 2.85396e-06, No Iterations 1
Min/max T:300.001 323.532

Solving for fluid region gas
diagonal:  Solving for rho, Initial residual = 0, Final residual = 0, No Iterations 0
DILUPBiCGStab:  Solving for Ux, Initial residual = 0.000387551, Final residual = 9.19182e-08, No Iterations 1
DILUPBiCGStab:  Solving for Uy, Initial residual = 0.000173206, Final residual = 6.80795e-08, No Iterations 1
DILUPBiCGStab:  Solving for Uz, Initial residual = 0.000310841, Final residual = 1.12043e-08, No Iterations 2
DILUPBiCGStab:  Solving for O2, Initial residual = 5.00199e-05, Final residual = 7.94678e-09, No Iterations 1
DILUPBiCGStab:  Solving for H2O, Initial residual = 0.000165712, Final residual = 3.13318e-08, No Iterations 1
DILUPBiCGStab:  Solving for CH4, Initial residual = 2.19472e-05, Final residual = 5.06145e-08, No Iterations 1
DILUPBiCGStab:  Solving for CO2, Initial residual = 0.000165712, Final residual = 3.13318e-08, No Iterations 1
GAMG:  Solving for G, Initial residual = 0.000594434, Final residual = 9.39731e-06, No Iterations 57
DILUPBiCGStab:  Solving for h, Initial residual = 0.000126263, Final residual = 1.54025e-08, No Iterations 1
Min/max T:300 2131.77
GAMG:  Solving for p_rgh, Initial residual = 0.00124439, Final residual = 7.51574e-06, No Iterations 7
diagonal:  Solving for rho, Initial residual = 0, Final residual = 0, No Iterations 0
time step continuity errors : sum local = 3.19414e-10, global = 7.50697e-13, cumulative = 7.50697e-13
GAMG:  Solving for p_rgh, Initial residual = 0.000205897, Final residual = 8.20761e-08, No Iterations 12
diagonal:  Solving for rho, Initial residual = 0, Final residual = 0, No Iterations 0
time step continuity errors : sum local = 3.84408e-12, global = -1.56532e-14, cumulative = 7.35044e-13
DILUPBiCGStab:  Solving for epsilon, Initial residual = 0.000634298, Final residual = 8.14009e-09, No Iterations 2
DILUPBiCGStab:  Solving for k, Initial residual = 0.000575913, Final residual = 9.43209e-09, No Iterations 2
Time scales min/max:
    Flow        = 0.001, 0.001
    Temperature = 0.00252694, 4.49423e+307
    Overall     = 0.001, 0.001
Time = 623s


Solving for solid region solid
DICPCG:  Solving for e, Initial residual = 9.27307e-05, Final residual = 2.84547e-06, No Iterations 1
Min/max T:300.001 323.552

Solving for fluid region gas
diagonal:  Solving for rho, Initial residual = 0, Final residual = 0, No Iterations 0
DILUPBiCGStab:  Solving for Ux, Initial residual = 0.000404177, Final residual = 9.36848e-08, No Iterations 1
DILUPBiCGStab:  Solving for Uy, Initial residual = 0.000189944, Final residual = 7.85628e-08, No Iterations 1
DILUPBiCGStab:  Solving for Uz, Initial residual = 0.000310396, Final residual = 1.11877e-08, No Iterations 2
DILUPBiCGStab:  Solving for O2, Initial residual = 5.01532e-05, Final residual = 7.95306e-09, No Iterations 1
DILUPBiCGStab:  Solving for H2O, Initial residual = 0.000165916, Final residual = 3.1288e-08, No Iterations 1
DILUPBiCGStab:  Solving for CH4, Initial residual = 2.19301e-05, Final residual = 5.07239e-08, No Iterations 1
DILUPBiCGStab:  Solving for CO2, Initial residual = 0.000165916, Final residual = 3.1288e-08, No Iterations 1
GAMG:  Solving for G, Initial residual = 0.000602052, Final residual = 9.54485e-06, No Iterations 57
DILUPBiCGStab:  Solving for h, Initial residual = 0.000126516, Final residual = 1.54246e-08, No Iterations 1
Min/max T:300 2131.58
GAMG:  Solving for p_rgh, Initial residual = 0.00184402, Final residual = 1.43241e-05, No Iterations 7
diagonal:  Solving for rho, Initial residual = 0, Final residual = 0, No Iterations 0
time step continuity errors : sum local = 6.6705e-10, global = 5.10203e-12, cumulative = 5.10203e-12
