/*---------------------------------------------------------------------------*\
  =========                 |
  \\      /  F ield         | OpenFOAM: The Open Source CFD Toolbox
   \\    /   O peration     | Website:  https://openfoam.org
    \\  /    A nd           | Version:  8
     \\/     M anipulation  |
\*---------------------------------------------------------------------------*/
Build  : 8-1c9b5879390b
Exec   : reconstructPar -allRegions -newTimes
Date   : Jul 02 2021
Time   : 11:56:06
Host   : "aris"
PID    : 1039300
I/O    : uncollated
Case   : /home/eadaymo/OpenFOAM/eadaymo-8/applications/multiRegionReactingFoamTutorials/tutorials-OpenFOAM-8/reverseBurner-chtMultiRegionFoamLTS
nProcs : 1
sigFpe : Enabling floating point exception trapping (FOAM_SIGFPE).
fileModificationChecking : Monitoring run-time modified files using timeStampMaster (fileModificationSkew 10)
allowSystemOperations : Allowing user-supplied system call operations

// * * * * * * * * * * * * * * * * * * * * * * * * * * * * * * * * * * * * * //
Create time



Reconstructing fields for mesh gas

Time = 20

Reconstructing FV fields

    Reconstructing volScalarFields

        rho
        CO2
        a
        rDeltaT
        CH4
        k
        H2O
        alphat
        N2
        nut
        O2
        p_rgh
        PaSR<rhoReactionThermo>:kappa
        Qdot
        G
        p
        T
        epsilon
        qr

    Reconstructing volVectorFields

        U

    Reconstructing surfaceScalarFields

        phi

Reconstructing point fields

No point fields

No lagrangian fields

Time = 40

Reconstructing FV fields

    Reconstructing volScalarFields

        rho
        CO2
        a
        rDeltaT
        CH4
        k
        H2O
        alphat
        N2
        nut
        O2
        p_rgh
        PaSR<rhoReactionThermo>:kappa
        Qdot
        G
        p
        T
        epsilon
        qr

    Reconstructing volVectorFields

        U

    Reconstructing surfaceScalarFields

        phi

Reconstructing point fields

No point fields

No lagrangian fields

Time = 60

Reconstructing FV fields

    Reconstructing volScalarFields

        rho
        CO2
        a
        rDeltaT
        CH4
        k
        H2O
        alphat
        N2
        nut
        O2
        p_rgh
        PaSR<rhoReactionThermo>:kappa
        Qdot
        G
        p
        T
        epsilon
        qr

    Reconstructing volVectorFields

        U

    Reconstructing surfaceScalarFields

        phi

Reconstructing point fields

No point fields

No lagrangian fields

Time = 80

Reconstructing FV fields

    Reconstructing volScalarFields

        rho
        CO2
        a
        rDeltaT
        CH4
        k
        H2O
        alphat
        N2
        nut
        O2
        p_rgh
        PaSR<rhoReactionThermo>:kappa
        Qdot
        G
        p
        T
        epsilon
        qr

    Reconstructing volVectorFields

        U

    Reconstructing surfaceScalarFields

        phi

Reconstructing point fields

No point fields

No lagrangian fields

Time = 100

Reconstructing FV fields

    Reconstructing volScalarFields

        rho
        CO2
        a
        rDeltaT
        CH4
        k
        H2O
        alphat
        N2
        nut
        O2
        p_rgh
        PaSR<rhoReactionThermo>:kappa
        Qdot
        G
        p
        T
        epsilon
        qr

    Reconstructing volVectorFields

        U

    Reconstructing surfaceScalarFields

        phi

Reconstructing point fields

No point fields

No lagrangian fields

Time = 120

Reconstructing FV fields

    Reconstructing volScalarFields

        rho
        CO2
        a
        rDeltaT
        CH4
        k
        H2O
        alphat
        N2
        nut
        O2
        p_rgh
        PaSR<rhoReactionThermo>:kappa
        Qdot
        G
        p
        T
        epsilon
        qr

    Reconstructing volVectorFields

        U

    Reconstructing surfaceScalarFields

        phi

Reconstructing point fields

No point fields

No lagrangian fields

Time = 140

Reconstructing FV fields

    Reconstructing volScalarFields

        rho
        CO2
        a
        rDeltaT
        CH4
        k
        H2O
        alphat
        N2
        nut
        O2
        p_rgh
        PaSR<rhoReactionThermo>:kappa
        Qdot
        G
        p
        T
        epsilon
        qr

    Reconstructing volVectorFields

        U

    Reconstructing surfaceScalarFields

        phi

Reconstructing point fields

No point fields

No lagrangian fields

Time = 160

Reconstructing FV fields

    Reconstructing volScalarFields

        rho
        CO2
        a
        rDeltaT
        CH4
        k
        H2O
        alphat
        N2
        nut
        O2
        p_rgh
        PaSR<rhoReactionThermo>:kappa
        Qdot
        G
        p
        T
        epsilon
        qr

    Reconstructing volVectorFields

        U

    Reconstructing surfaceScalarFields

        phi

Reconstructing point fields

No point fields

No lagrangian fields

Time = 180

Reconstructing FV fields

    Reconstructing volScalarFields

        rho
        CO2
        a
        rDeltaT
        CH4
        k
        H2O
        alphat
        N2
        nut
        O2
        p_rgh
        PaSR<rhoReactionThermo>:kappa
        Qdot
        G
        p
        T
        epsilon
        qr

    Reconstructing volVectorFields

        U

    Reconstructing surfaceScalarFields

        phi

Reconstructing point fields

No point fields

No lagrangian fields

Time = 200

Reconstructing FV fields

    Reconstructing volScalarFields

        rho
        CO2
        a
        rDeltaT
        CH4
        k
        H2O
        alphat
        N2
        nut
        O2
        p_rgh
        PaSR<rhoReactionThermo>:kappa
        Qdot
        G
        p
        T
        epsilon
        qr

    Reconstructing volVectorFields

        U

    Reconstructing surfaceScalarFields

        phi

Reconstructing point fields

No point fields

No lagrangian fields

Time = 220

Reconstructing FV fields

    Reconstructing volScalarFields

        rho
        CO2
        a
        rDeltaT
        CH4
        k
        H2O
        alphat
        N2
        nut
        O2
        p_rgh
        PaSR<rhoReactionThermo>:kappa
        Qdot
        G
        p
        T
        epsilon
        qr

    Reconstructing volVectorFields

        U

    Reconstructing surfaceScalarFields

        phi

Reconstructing point fields

No point fields

No lagrangian fields

Time = 240

Reconstructing FV fields

    Reconstructing volScalarFields

        rho
        CO2
        a
        rDeltaT
        CH4
        k
        H2O
        alphat
        N2
        nut
        O2
        p_rgh
        PaSR<rhoReactionThermo>:kappa
        Qdot
        G
        p
        T
        epsilon
        qr

    Reconstructing volVectorFields

        U

    Reconstructing surfaceScalarFields

        phi

Reconstructing point fields

No point fields

No lagrangian fields

Time = 260

Reconstructing FV fields

    Reconstructing volScalarFields

        rho
        CO2
        a
        rDeltaT
        CH4
        k
        H2O
        alphat
        N2
        nut
        O2
        p_rgh
        PaSR<rhoReactionThermo>:kappa
        Qdot
        G
        p
        T
        epsilon
        qr

    Reconstructing volVectorFields

        U

    Reconstructing surfaceScalarFields

        phi

Reconstructing point fields

No point fields

No lagrangian fields

Time = 280

Reconstructing FV fields

    Reconstructing volScalarFields

        rho
        CO2
        a
        rDeltaT
        CH4
        k
        H2O
        alphat
        N2
        nut
        O2
        p_rgh
        PaSR<rhoReactionThermo>:kappa
        Qdot
        G
        p
        T
        epsilon
        qr

    Reconstructing volVectorFields

        U

    Reconstructing surfaceScalarFields

        phi

Reconstructing point fields

No point fields

No lagrangian fields

Time = 300

Reconstructing FV fields

    Reconstructing volScalarFields

        rho
        CO2
        a
        rDeltaT
        CH4
        k
        H2O
        alphat
        N2
        nut
        O2
        p_rgh
        PaSR<rhoReactionThermo>:kappa
        Qdot
        G
        p
        T
        epsilon
        qr

    Reconstructing volVectorFields

        U

    Reconstructing surfaceScalarFields

        phi

Reconstructing point fields

No point fields

No lagrangian fields

Time = 320

Reconstructing FV fields

    Reconstructing volScalarFields

        rho
        CO2
        a
        rDeltaT
        CH4
        k
        H2O
        alphat
        N2
        nut
        O2
        p_rgh
        PaSR<rhoReactionThermo>:kappa
        Qdot
        G
        p
        T
        epsilon
        qr

    Reconstructing volVectorFields

        U

    Reconstructing surfaceScalarFields

        phi

Reconstructing point fields

No point fields

No lagrangian fields

Time = 340

Reconstructing FV fields

    Reconstructing volScalarFields

        rho
        CO2
        a
        rDeltaT
        CH4
        k
        H2O
        alphat
        N2
        nut
        O2
        p_rgh
        PaSR<rhoReactionThermo>:kappa
        Qdot
        G
        p
        T
        epsilon
        qr

    Reconstructing volVectorFields

        U

    Reconstructing surfaceScalarFields

        phi

Reconstructing point fields

No point fields

No lagrangian fields

Time = 360

Reconstructing FV fields

    Reconstructing volScalarFields

        rho
        CO2
        a
        rDeltaT
        CH4
        k
        H2O
        alphat
        N2
        nut
        O2
        p_rgh
        PaSR<rhoReactionThermo>:kappa
        Qdot
        G
        p
        T
        epsilon
        qr

    Reconstructing volVectorFields

        U

    Reconstructing surfaceScalarFields

        phi

Reconstructing point fields

No point fields

No lagrangian fields

Time = 380

Reconstructing FV fields

    Reconstructing volScalarFields

        rho
        CO2
        a
        rDeltaT
        CH4
        k
        H2O
        alphat
        N2
        nut
        O2
        p_rgh
        PaSR<rhoReactionThermo>:kappa
        Qdot
        G
        p
        T
        epsilon
        qr

    Reconstructing volVectorFields

        U

    Reconstructing surfaceScalarFields

        phi

Reconstructing point fields

No point fields

No lagrangian fields

Time = 400

Reconstructing FV fields

    Reconstructing volScalarFields

        rho
        CO2
        a
        rDeltaT
        CH4
        k
        H2O
        alphat
        N2
        nut
        O2
        p_rgh
        PaSR<rhoReactionThermo>:kappa
        Qdot
        G
        p
        T
        epsilon
        qr

    Reconstructing volVectorFields

        U

    Reconstructing surfaceScalarFields

        phi

Reconstructing point fields

No point fields

No lagrangian fields

Time = 420

Reconstructing FV fields

    Reconstructing volScalarFields

        rho
        CO2
        a
        rDeltaT
        CH4
        k
        H2O
        alphat
        N2
        nut
        O2
        p_rgh
        PaSR<rhoReactionThermo>:kappa
        Qdot
        G
        p
        T
        epsilon
        qr

    Reconstructing volVectorFields

        U

    Reconstructing surfaceScalarFields

        phi

Reconstructing point fields

No point fields

No lagrangian fields

Time = 440

Reconstructing FV fields

    Reconstructing volScalarFields

        rho
        CO2
        a
        rDeltaT
        CH4
        k
        H2O
        alphat
        N2
        nut
        O2
        p_rgh
        PaSR<rhoReactionThermo>:kappa
        Qdot
        G
        p
        T
        epsilon
        qr

    Reconstructing volVectorFields

        U

    Reconstructing surfaceScalarFields

        phi

Reconstructing point fields

No point fields

No lagrangian fields

Time = 460

Reconstructing FV fields

    Reconstructing volScalarFields

        rho
        CO2
        a
        rDeltaT
        CH4
        k
        H2O
        alphat
        N2
        nut
        O2
        p_rgh
        PaSR<rhoReactionThermo>:kappa
        Qdot
        G
        p
        T
        epsilon
        qr

    Reconstructing volVectorFields

        U

    Reconstructing surfaceScalarFields

        phi

Reconstructing point fields

No point fields

No lagrangian fields

Time = 480

Reconstructing FV fields

    Reconstructing volScalarFields

        rho
        CO2
        a
        rDeltaT
        CH4
        k
        H2O
        alphat
        N2
        nut
        O2
        p_rgh
        PaSR<rhoReactionThermo>:kappa
        Qdot
        G
        p
        T
        epsilon
        qr

    Reconstructing volVectorFields

        U

    Reconstructing surfaceScalarFields

        phi

Reconstructing point fields

No point fields

No lagrangian fields

Time = 500

Reconstructing FV fields

    Reconstructing volScalarFields

        rho
        CO2
        a
        rDeltaT
        CH4
        k
        H2O
        alphat
        N2
        nut
        O2
        p_rgh
        PaSR<rhoReactionThermo>:kappa
        Qdot
        G
        p
        T
        epsilon
        qr

    Reconstructing volVectorFields

        U

    Reconstructing surfaceScalarFields

        phi

Reconstructing point fields

No point fields

No lagrangian fields

Time = 520

Reconstructing FV fields

    Reconstructing volScalarFields

        rho
        CO2
        a
        rDeltaT
        CH4
        k
        H2O
        alphat
        N2
        nut
        O2
        p_rgh
        PaSR<rhoReactionThermo>:kappa
        Qdot
        G
        p
        T
        epsilon
        qr

    Reconstructing volVectorFields

        U

    Reconstructing surfaceScalarFields

        phi

Reconstructing point fields

No point fields

No lagrangian fields

Time = 540

Reconstructing FV fields

    Reconstructing volScalarFields

        rho
        CO2
        a
        rDeltaT
        CH4
        k
        H2O
        alphat
        N2
        nut
        O2
        p_rgh
        PaSR<rhoReactionThermo>:kappa
        Qdot
        G
        p
        T
        epsilon
        qr

    Reconstructing volVectorFields

        U

    Reconstructing surfaceScalarFields

        phi

Reconstructing point fields

No point fields

No lagrangian fields

Time = 560

Reconstructing FV fields

    Reconstructing volScalarFields

        rho
        CO2
        a
        rDeltaT
        CH4
        k
        H2O
        alphat
        N2
        nut
        O2
        p_rgh
        PaSR<rhoReactionThermo>:kappa
        Qdot
        G
        p
        T
        epsilon
        qr

    Reconstructing volVectorFields

        U

    Reconstructing surfaceScalarFields

        phi

Reconstructing point fields

No point fields

No lagrangian fields

Time = 580

Reconstructing FV fields

    Reconstructing volScalarFields

        rho
        CO2
        a
        rDeltaT
        CH4
        k
        H2O
        alphat
        N2
        nut
        O2
        p_rgh
        PaSR<rhoReactionThermo>:kappa
        Qdot
        G
        p
        T
        epsilon
        qr

    Reconstructing volVectorFields

        U

    Reconstructing surfaceScalarFields

        phi

Reconstructing point fields

No point fields

No lagrangian fields

Time = 600

Reconstructing FV fields

    Reconstructing volScalarFields

        rho
        CO2
        a
        rDeltaT
        CH4
        k
        H2O
        alphat
        N2
        nut
        O2
        p_rgh
        PaSR<rhoReactionThermo>:kappa
        Qdot
        G
        p
        T
        epsilon
        qr

    Reconstructing volVectorFields

        U

    Reconstructing surfaceScalarFields

        phi

Reconstructing point fields

No point fields

No lagrangian fields

Time = 620

Reconstructing FV fields

    Reconstructing volScalarFields

        rho
        CO2
        a
        rDeltaT
        CH4
        k
        H2O
        alphat
        N2
        nut
        O2
        p_rgh
        PaSR<rhoReactionThermo>:kappa
        Qdot
        G
        p
        T
        epsilon
        qr

    Reconstructing volVectorFields

        U

    Reconstructing surfaceScalarFields

        phi

Reconstructing point fields

No point fields

No lagrangian fields

Time = 640

Reconstructing FV fields

    Reconstructing volScalarFields

        rho
        CO2
        a
        rDeltaT
        CH4
        k
        H2O
        alphat
        N2
        nut
        O2
        p_rgh
        PaSR<rhoReactionThermo>:kappa
        Qdot
        G
        p
        T
        epsilon
        qr

    Reconstructing volVectorFields

        U

    Reconstructing surfaceScalarFields

        phi

Reconstructing point fields

No point fields

No lagrangian fields

Time = 660

Reconstructing FV fields

    Reconstructing volScalarFields

        rho
        CO2
        a
        rDeltaT
        CH4
        k
        H2O
        alphat
        N2
        nut
        O2
        p_rgh
        PaSR<rhoReactionThermo>:kappa
        Qdot
        G
        p
        T
        epsilon
        qr

    Reconstructing volVectorFields

        U

    Reconstructing surfaceScalarFields

        phi

Reconstructing point fields

No point fields

No lagrangian fields

Time = 680

Reconstructing FV fields

    Reconstructing volScalarFields

        rho
        CO2
        a
        rDeltaT
        CH4
        k
        H2O
        alphat
        N2
        nut
        O2
        p_rgh
        PaSR<rhoReactionThermo>:kappa
        Qdot
        G
        p
        T
        epsilon
        qr

    Reconstructing volVectorFields

        U

    Reconstructing surfaceScalarFields

        phi

Reconstructing point fields

No point fields

No lagrangian fields

Time = 700

Reconstructing FV fields

    Reconstructing volScalarFields

        rho
        CO2
        a
        rDeltaT
        CH4
        k
        H2O
        alphat
        N2
        nut
        O2
        p_rgh
        PaSR<rhoReactionThermo>:kappa
        Qdot
        G
        p
        T
        epsilon
        qr

    Reconstructing volVectorFields

        U

    Reconstructing surfaceScalarFields

        phi

Reconstructing point fields

No point fields

No lagrangian fields

Time = 720

Reconstructing FV fields

    Reconstructing volScalarFields

        rho
        CO2
        a
        rDeltaT
        CH4
        k
        H2O
        alphat
        N2
        nut
        O2
        p_rgh
        PaSR<rhoReactionThermo>:kappa
        Qdot
        G
        p
        T
        epsilon
        qr

    Reconstructing volVectorFields

        U

    Reconstructing surfaceScalarFields

        phi

Reconstructing point fields

No point fields

No lagrangian fields

Time = 740

Reconstructing FV fields

    Reconstructing volScalarFields

        rho
        CO2
        a
        rDeltaT
        CH4
        k
        H2O
        alphat
        N2
        nut
        O2
        p_rgh
        PaSR<rhoReactionThermo>:kappa
        Qdot
        G
        p
        T
        epsilon
        qr

    Reconstructing volVectorFields

        U

    Reconstructing surfaceScalarFields

        phi

Reconstructing point fields

No point fields

No lagrangian fields

Time = 760

Reconstructing FV fields

    Reconstructing volScalarFields

        rho
        CO2
        a
        rDeltaT
        CH4
        k
        H2O
        alphat
        N2
        nut
        O2
        p_rgh
        PaSR<rhoReactionThermo>:kappa
        Qdot
        G
        p
        T
        epsilon
        qr

    Reconstructing volVectorFields

        U

    Reconstructing surfaceScalarFields

        phi

Reconstructing point fields

No point fields

No lagrangian fields

Time = 780

Reconstructing FV fields

    Reconstructing volScalarFields

        rho
        CO2
        a
        rDeltaT
        CH4
        k
        H2O
        alphat
        N2
        nut
        O2
        p_rgh
        PaSR<rhoReactionThermo>:kappa
        Qdot
        G
        p
        T
        epsilon
        qr

    Reconstructing volVectorFields

        U

    Reconstructing surfaceScalarFields

        phi

Reconstructing point fields

No point fields

No lagrangian fields

Time = 800

Reconstructing FV fields

    Reconstructing volScalarFields

        rho
        CO2
        a
        rDeltaT
        CH4
        k
        H2O
        alphat
        N2
        nut
        O2
        p_rgh
        PaSR<rhoReactionThermo>:kappa
        Qdot
        G
        p
        T
        epsilon
        qr

    Reconstructing volVectorFields

        U

    Reconstructing surfaceScalarFields

        phi

Reconstructing point fields

No point fields

No lagrangian fields

Time = 820

Reconstructing FV fields

    Reconstructing volScalarFields

        rho
        CO2
        a
        rDeltaT
        CH4
        k
        H2O
        alphat
        N2
        nut
        O2
        p_rgh
        PaSR<rhoReactionThermo>:kappa
        Qdot
        G
        p
        T
        epsilon
        qr

    Reconstructing volVectorFields

        U

    Reconstructing surfaceScalarFields

        phi

Reconstructing point fields

No point fields

No lagrangian fields

Time = 840

Reconstructing FV fields

    Reconstructing volScalarFields

        rho
        CO2
        a
        rDeltaT
        CH4
        k
        H2O
        alphat
        N2
        nut
        O2
        p_rgh
        PaSR<rhoReactionThermo>:kappa
        Qdot
        G
        p
        T
        epsilon
        qr

    Reconstructing volVectorFields

        U

    Reconstructing surfaceScalarFields

        phi

Reconstructing point fields

No point fields

No lagrangian fields

Time = 860

Reconstructing FV fields

    Reconstructing volScalarFields

        rho
        CO2
        a
        rDeltaT
        CH4
        k
        H2O
        alphat
        N2
        nut
        O2
        p_rgh
        PaSR<rhoReactionThermo>:kappa
        Qdot
        G
        p
        T
        epsilon
        qr

    Reconstructing volVectorFields

        U

    Reconstructing surfaceScalarFields

        phi

Reconstructing point fields

No point fields

No lagrangian fields

Time = 880

Reconstructing FV fields

    Reconstructing volScalarFields

        rho
        CO2
        a
        rDeltaT
        CH4
        k
        H2O
        alphat
        N2
        nut
        O2
        p_rgh
        PaSR<rhoReactionThermo>:kappa
        Qdot
        G
        p
        T
        epsilon
        qr

    Reconstructing volVectorFields

        U

    Reconstructing surfaceScalarFields

        phi

Reconstructing point fields

No point fields

No lagrangian fields

Time = 900

Reconstructing FV fields

    Reconstructing volScalarFields

        rho
        CO2
        a
        rDeltaT
        CH4
        k
        H2O
        alphat
        N2
        nut
        O2
        p_rgh
        PaSR<rhoReactionThermo>:kappa
        Qdot
        G
        p
        T
        epsilon
        qr

    Reconstructing volVectorFields

        U

    Reconstructing surfaceScalarFields

        phi

Reconstructing point fields

No point fields

No lagrangian fields

Time = 920

Reconstructing FV fields

    Reconstructing volScalarFields

        rho
        CO2
        a
        rDeltaT
        CH4
        k
        H2O
        alphat
        N2
        nut
        O2
        p_rgh
        PaSR<rhoReactionThermo>:kappa
        Qdot
        G
        p
        T
        epsilon
        qr

    Reconstructing volVectorFields

        U

    Reconstructing surfaceScalarFields

        phi

Reconstructing point fields

No point fields

No lagrangian fields

Time = 940

Reconstructing FV fields

    Reconstructing volScalarFields

        rho
        CO2
        a
        rDeltaT
        CH4
        k
        H2O
        alphat
        N2
        nut
        O2
        p_rgh
        PaSR<rhoReactionThermo>:kappa
        Qdot
        G
        p
        T
        epsilon
        qr

    Reconstructing volVectorFields

        U

    Reconstructing surfaceScalarFields

        phi

Reconstructing point fields

No point fields

No lagrangian fields

Time = 960

Reconstructing FV fields

    Reconstructing volScalarFields

        rho
        CO2
        a
        rDeltaT
        CH4
        k
        H2O
        alphat
        N2
        nut
        O2
        p_rgh
        PaSR<rhoReactionThermo>:kappa
        Qdot
        G
        p
        T
        epsilon
        qr

    Reconstructing volVectorFields

        U

    Reconstructing surfaceScalarFields

        phi

Reconstructing point fields

No point fields

No lagrangian fields

Time = 980

Reconstructing FV fields

    Reconstructing volScalarFields

        rho
        CO2
        a
        rDeltaT
        CH4
        k
        H2O
        alphat
        N2
        nut
        O2
        p_rgh
        PaSR<rhoReactionThermo>:kappa
        Qdot
        G
        p
        T
        epsilon
        qr

    Reconstructing volVectorFields

        U

    Reconstructing surfaceScalarFields

        phi

Reconstructing point fields

No point fields

No lagrangian fields

Time = 1000

Reconstructing FV fields

    Reconstructing volScalarFields

        rho
        CO2
        a
        rDeltaT
        CH4
        k
        H2O
        alphat
        N2
        nut
        O2
        p_rgh
        PaSR<rhoReactionThermo>:kappa
        Qdot
        G
        p
        T
        epsilon
        qr

    Reconstructing volVectorFields

        U

    Reconstructing surfaceScalarFields

        phi

Reconstructing point fields

No point fields

No lagrangian fields

Time = 1020

Reconstructing FV fields

    Reconstructing volScalarFields

        rho
        CO2
        a
        rDeltaT
        CH4
        k
        H2O
        alphat
        N2
        nut
        O2
        p_rgh
        PaSR<rhoReactionThermo>:kappa
        Qdot
        G
        p
        T
        epsilon
        qr

    Reconstructing volVectorFields

        U

    Reconstructing surfaceScalarFields

        phi

Reconstructing point fields

No point fields

No lagrangian fields

Time = 1040

Reconstructing FV fields

    Reconstructing volScalarFields

        rho
        CO2
        a
        rDeltaT
        CH4
        k
        H2O
        alphat
        N2
        nut
        O2
        p_rgh
        PaSR<rhoReactionThermo>:kappa
        Qdot
        G
        p
        T
        epsilon
        qr

    Reconstructing volVectorFields

        U

    Reconstructing surfaceScalarFields

        phi

Reconstructing point fields

No point fields

No lagrangian fields

Time = 1060

Reconstructing FV fields

    Reconstructing volScalarFields

        rho
        CO2
        a
        rDeltaT
        CH4
        k
        H2O
        alphat
        N2
        nut
        O2
        p_rgh
        PaSR<rhoReactionThermo>:kappa
        Qdot
        G
        p
        T
        epsilon
        qr

    Reconstructing volVectorFields

        U

    Reconstructing surfaceScalarFields

        phi

Reconstructing point fields

No point fields

No lagrangian fields

Time = 1080

Reconstructing FV fields

    Reconstructing volScalarFields

        rho
        CO2
        a
        rDeltaT
        CH4
        k
        H2O
        alphat
        N2
        nut
        O2
        p_rgh
        PaSR<rhoReactionThermo>:kappa
        Qdot
        G
        p
        T
        epsilon
        qr

    Reconstructing volVectorFields

        U

    Reconstructing surfaceScalarFields

        phi

Reconstructing point fields

No point fields

No lagrangian fields

Time = 1100

Reconstructing FV fields

    Reconstructing volScalarFields

        rho
        CO2
        a
        rDeltaT
        CH4
        k
        H2O
        alphat
        N2
        nut
        O2
        p_rgh
        PaSR<rhoReactionThermo>:kappa
        Qdot
        G
        p
        T
        epsilon
        qr

    Reconstructing volVectorFields

        U

    Reconstructing surfaceScalarFields

        phi

Reconstructing point fields

No point fields

No lagrangian fields

Time = 1120

Reconstructing FV fields

    Reconstructing volScalarFields

        rho
        CO2
        a
        rDeltaT
        CH4
        k
        H2O
        alphat
        N2
        nut
        O2
        p_rgh
        PaSR<rhoReactionThermo>:kappa
        Qdot
        G
        p
        T
        epsilon
        qr

    Reconstructing volVectorFields

        U

    Reconstructing surfaceScalarFields

        phi

Reconstructing point fields

No point fields

No lagrangian fields

Time = 1140

Reconstructing FV fields

    Reconstructing volScalarFields

        rho
        CO2
        a
        rDeltaT
        CH4
        k
        H2O
        alphat
        N2
        nut
        O2
        p_rgh
        PaSR<rhoReactionThermo>:kappa
        Qdot
        G
        p
        T
        epsilon
        qr

    Reconstructing volVectorFields

        U

    Reconstructing surfaceScalarFields

        phi

Reconstructing point fields

No point fields

No lagrangian fields

Time = 1160

Reconstructing FV fields

    Reconstructing volScalarFields

        rho
        CO2
        a
        rDeltaT
        CH4
        k
        H2O
        alphat
        N2
        nut
        O2
        p_rgh
        PaSR<rhoReactionThermo>:kappa
        Qdot
        G
        p
        T
        epsilon
        qr

    Reconstructing volVectorFields

        U

    Reconstructing surfaceScalarFields

        phi

Reconstructing point fields

No point fields

No lagrangian fields

Time = 1180

Reconstructing FV fields

    Reconstructing volScalarFields

        rho
        CO2
        a
        rDeltaT
        CH4
        k
        H2O
        alphat
        N2
        nut
        O2
        p_rgh
        PaSR<rhoReactionThermo>:kappa
        Qdot
        G
        p
        T
        epsilon
        qr

    Reconstructing volVectorFields

        U

    Reconstructing surfaceScalarFields

        phi

Reconstructing point fields

No point fields

No lagrangian fields

Time = 1200

Reconstructing FV fields

    Reconstructing volScalarFields

        rho
        CO2
        a
        rDeltaT
        CH4
        k
        H2O
        alphat
        N2
        nut
        O2
        p_rgh
        PaSR<rhoReactionThermo>:kappa
        Qdot
        G
        p
        T
        epsilon
        qr

    Reconstructing volVectorFields

        U

    Reconstructing surfaceScalarFields

        phi

Reconstructing point fields

No point fields

No lagrangian fields

Time = 1220

Reconstructing FV fields

    Reconstructing volScalarFields

        rho
        CO2
        a
        rDeltaT
        CH4
        k
        H2O
        alphat
        N2
        nut
        O2
        p_rgh
        PaSR<rhoReactionThermo>:kappa
        Qdot
        G
        p
        T
        epsilon
        qr

    Reconstructing volVectorFields

        U

    Reconstructing surfaceScalarFields

        phi

Reconstructing point fields

No point fields

No lagrangian fields

Time = 1240

Reconstructing FV fields

    Reconstructing volScalarFields

        rho
        CO2
        a
        rDeltaT
        CH4
        k
        H2O
        alphat
        N2
        nut
        O2
        p_rgh
        PaSR<rhoReactionThermo>:kappa
        Qdot
        G
        p
        T
        epsilon
        qr

    Reconstructing volVectorFields

        U

    Reconstructing surfaceScalarFields

        phi

Reconstructing point fields

No point fields

No lagrangian fields

Time = 1260

Reconstructing FV fields

    Reconstructing volScalarFields

        rho
        CO2
        a
        rDeltaT
        CH4
        k
        H2O
        alphat
        N2
        nut
        O2
        p_rgh
        PaSR<rhoReactionThermo>:kappa
        Qdot
        G
        p
        T
        epsilon
        qr

    Reconstructing volVectorFields

        U

    Reconstructing surfaceScalarFields

        phi

Reconstructing point fields

No point fields

No lagrangian fields

Time = 1280

Reconstructing FV fields

    Reconstructing volScalarFields

        rho
        CO2
        a
        rDeltaT
        CH4
        k
        H2O
        alphat
        N2
        nut
        O2
        p_rgh
        PaSR<rhoReactionThermo>:kappa
        Qdot
        G
        p
        T
        epsilon
        qr

    Reconstructing volVectorFields

        U

    Reconstructing surfaceScalarFields

        phi

Reconstructing point fields

No point fields

No lagrangian fields

Time = 1300

Reconstructing FV fields

    Reconstructing volScalarFields

        rho
        CO2
        a
        rDeltaT
        CH4
        k
        H2O
        alphat
        N2
        nut
        O2
        p_rgh
        PaSR<rhoReactionThermo>:kappa
        Qdot
        G
        p
        T
        epsilon
        qr

    Reconstructing volVectorFields

        U

    Reconstructing surfaceScalarFields

        phi

Reconstructing point fields

No point fields

No lagrangian fields

Time = 1320

Reconstructing FV fields

    Reconstructing volScalarFields

        rho
        CO2
        a
        rDeltaT
        CH4
        k
        H2O
        alphat
        N2
        nut
        O2
        p_rgh
        PaSR<rhoReactionThermo>:kappa
        Qdot
        G
        p
        T
        epsilon
        qr

    Reconstructing volVectorFields

        U

    Reconstructing surfaceScalarFields

        phi

Reconstructing point fields

No point fields

No lagrangian fields

Time = 1340

Reconstructing FV fields

    Reconstructing volScalarFields

        rho
        CO2
        a
        rDeltaT
        CH4
        k
        H2O
        alphat
        N2
        nut
        O2
        p_rgh
        PaSR<rhoReactionThermo>:kappa
        Qdot
        G
        p
        T
        epsilon
        qr

    Reconstructing volVectorFields

        U

    Reconstructing surfaceScalarFields

        phi

Reconstructing point fields

No point fields

No lagrangian fields

Time = 1360

Reconstructing FV fields

    Reconstructing volScalarFields

        rho
        CO2
        a
        rDeltaT
        CH4
        k
        H2O
        alphat
        N2
        nut
        O2
        p_rgh
        PaSR<rhoReactionThermo>:kappa
        Qdot
        G
        p
        T
        epsilon
        qr

    Reconstructing volVectorFields

        U

    Reconstructing surfaceScalarFields

        phi

Reconstructing point fields

No point fields

No lagrangian fields

Time = 1380

Reconstructing FV fields

    Reconstructing volScalarFields

        rho
        CO2
        a
        rDeltaT
        CH4
        k
        H2O
        alphat
        N2
        nut
        O2
        p_rgh
        PaSR<rhoReactionThermo>:kappa
        Qdot
        G
        p
        T
        epsilon
        qr

    Reconstructing volVectorFields

        U

    Reconstructing surfaceScalarFields

        phi

Reconstructing point fields

No point fields

No lagrangian fields

Time = 1400

Reconstructing FV fields

    Reconstructing volScalarFields

        rho
        CO2
        a
        rDeltaT
        CH4
        k
        H2O
        alphat
        N2
        nut
        O2
        p_rgh
        PaSR<rhoReactionThermo>:kappa
        Qdot
        G
        p
        T
        epsilon
        qr

    Reconstructing volVectorFields

        U

    Reconstructing surfaceScalarFields

        phi

Reconstructing point fields

No point fields

No lagrangian fields

Time = 1420

Reconstructing FV fields

    Reconstructing volScalarFields

        rho
        CO2
        a
        rDeltaT
        CH4
        k
        H2O
        alphat
        N2
        nut
        O2
        p_rgh
        PaSR<rhoReactionThermo>:kappa
        Qdot
        G
        p
        T
        epsilon
        qr

    Reconstructing volVectorFields

        U

    Reconstructing surfaceScalarFields

        phi

Reconstructing point fields

No point fields

No lagrangian fields

Time = 1440

Reconstructing FV fields

    Reconstructing volScalarFields

        rho
        CO2
        a
        rDeltaT
        CH4
        k
        H2O
        alphat
        N2
        nut
        O2
        p_rgh
        PaSR<rhoReactionThermo>:kappa
        Qdot
        G
        p
        T
        epsilon
        qr

    Reconstructing volVectorFields

        U

    Reconstructing surfaceScalarFields

        phi

Reconstructing point fields

No point fields

No lagrangian fields

Time = 1460

Reconstructing FV fields

    Reconstructing volScalarFields

        rho
        CO2
        a
        rDeltaT
        CH4
        k
        H2O
        alphat
        N2
        nut
        O2
        p_rgh
        PaSR<rhoReactionThermo>:kappa
        Qdot
        G
        p
        T
        epsilon
        qr

    Reconstructing volVectorFields

        U

    Reconstructing surfaceScalarFields

        phi

Reconstructing point fields

No point fields

No lagrangian fields

Time = 1480

Reconstructing FV fields

    Reconstructing volScalarFields

        rho
        CO2
        a
        rDeltaT
        CH4
        k
        H2O
        alphat
        N2
        nut
        O2
        p_rgh
        PaSR<rhoReactionThermo>:kappa
        Qdot
        G
        p
        T
        epsilon
        qr

    Reconstructing volVectorFields

        U

    Reconstructing surfaceScalarFields

        phi

Reconstructing point fields

No point fields

No lagrangian fields

Time = 1500

Reconstructing FV fields

    Reconstructing volScalarFields

        rho
        CO2
        a
        rDeltaT
        CH4
        k
        H2O
        alphat
        N2
        nut
        O2
        p_rgh
        PaSR<rhoReactionThermo>:kappa
        Qdot
        G
        p
        T
        epsilon
        qr

    Reconstructing volVectorFields

        U

    Reconstructing surfaceScalarFields

        phi

Reconstructing point fields

No point fields

No lagrangian fields

Time = 1520

Reconstructing FV fields

    Reconstructing volScalarFields

        rho
        CO2
        a
        rDeltaT
        CH4
        k
        H2O
        alphat
        N2
        nut
        O2
        p_rgh
        PaSR<rhoReactionThermo>:kappa
        Qdot
        G
        p
        T
        epsilon
        qr

    Reconstructing volVectorFields

        U

    Reconstructing surfaceScalarFields

        phi

Reconstructing point fields

No point fields

No lagrangian fields

Time = 1540

Reconstructing FV fields

    Reconstructing volScalarFields

        rho
        CO2
        a
        rDeltaT
        CH4
        k
        H2O
        alphat
        N2
        nut
        O2
        p_rgh
        PaSR<rhoReactionThermo>:kappa
        Qdot
        G
        p
        T
        epsilon
        qr

    Reconstructing volVectorFields

        U

    Reconstructing surfaceScalarFields

        phi

Reconstructing point fields

No point fields

No lagrangian fields

Time = 1560

Reconstructing FV fields

    Reconstructing volScalarFields

        rho
        CO2
        a
        rDeltaT
        CH4
        k
        H2O
        alphat
        N2
        nut
        O2
        p_rgh
        PaSR<rhoReactionThermo>:kappa
        Qdot
        G
        p
        T
        epsilon
        qr

    Reconstructing volVectorFields

        U

    Reconstructing surfaceScalarFields

        phi

Reconstructing point fields

No point fields

No lagrangian fields

Time = 1580

Reconstructing FV fields

    Reconstructing volScalarFields

        rho
        CO2
        a
        rDeltaT
        CH4
        k
        H2O
        alphat
        N2
        nut
        O2
        p_rgh
        PaSR<rhoReactionThermo>:kappa
        Qdot
        G
        p
        T
        epsilon
        qr

    Reconstructing volVectorFields

        U

    Reconstructing surfaceScalarFields

        phi

Reconstructing point fields

No point fields

No lagrangian fields

Time = 1600

Reconstructing FV fields

    Reconstructing volScalarFields

        rho
        CO2
        a
        rDeltaT
        CH4
        k
        H2O
        alphat
        N2
        nut
        O2
        p_rgh
        PaSR<rhoReactionThermo>:kappa
        Qdot
        G
        p
        T
        epsilon
        qr

    Reconstructing volVectorFields

        U

    Reconstructing surfaceScalarFields

        phi

Reconstructing point fields

No point fields

No lagrangian fields

Time = 1620

Reconstructing FV fields

    Reconstructing volScalarFields

        rho
        CO2
        a
        rDeltaT
        CH4
        k
        H2O
        alphat
        N2
        nut
        O2
        p_rgh
        PaSR<rhoReactionThermo>:kappa
        Qdot
        G
        p
        T
        epsilon
        qr

    Reconstructing volVectorFields

        U

    Reconstructing surfaceScalarFields

        phi

Reconstructing point fields

No point fields

No lagrangian fields

Time = 1640

Reconstructing FV fields

    Reconstructing volScalarFields

        rho
        CO2
        a
        rDeltaT
        CH4
        k
        H2O
        alphat
        N2
        nut
        O2
        p_rgh
        PaSR<rhoReactionThermo>:kappa
        Qdot
        G
        p
        T
        epsilon
        qr

    Reconstructing volVectorFields

        U

    Reconstructing surfaceScalarFields

        phi

Reconstructing point fields

No point fields

No lagrangian fields

Time = 1660

Reconstructing FV fields

    Reconstructing volScalarFields

        rho
        CO2
        a
        rDeltaT
        CH4
        k
        H2O
        alphat
        N2
        nut
        O2
        p_rgh
        PaSR<rhoReactionThermo>:kappa
        Qdot
        G
        p
        T
        epsilon
        qr

    Reconstructing volVectorFields

        U

    Reconstructing surfaceScalarFields

        phi

Reconstructing point fields

No point fields

No lagrangian fields

Time = 1680

Reconstructing FV fields

    Reconstructing volScalarFields

        rho
        CO2
        a
        rDeltaT
        CH4
        k
        H2O
        alphat
        N2
        nut
        O2
        p_rgh
        PaSR<rhoReactionThermo>:kappa
        Qdot
        G
        p
        T
        epsilon
        qr

    Reconstructing volVectorFields

        U

    Reconstructing surfaceScalarFields

        phi

Reconstructing point fields

No point fields

No lagrangian fields

Time = 1700

Reconstructing FV fields

    Reconstructing volScalarFields

        rho
        CO2
        a
        rDeltaT
        CH4
        k
        H2O
        alphat
        N2
        nut
        O2
        p_rgh
        PaSR<rhoReactionThermo>:kappa
        Qdot
        G
        p
        T
        epsilon
        qr

    Reconstructing volVectorFields

        U

    Reconstructing surfaceScalarFields

        phi

Reconstructing point fields

No point fields

No lagrangian fields

Time = 1720

Reconstructing FV fields

    Reconstructing volScalarFields

        rho
        CO2
        a
        rDeltaT
        CH4
        k
        H2O
        alphat
        N2
        nut
        O2
        p_rgh
        PaSR<rhoReactionThermo>:kappa
        Qdot
        G
        p
        T
        epsilon
        qr

    Reconstructing volVectorFields

        U

    Reconstructing surfaceScalarFields

        phi

Reconstructing point fields

No point fields

No lagrangian fields

Time = 1740

Reconstructing FV fields

    Reconstructing volScalarFields

        rho
        CO2
        a
        rDeltaT
        CH4
        k
        H2O
        alphat
        N2
        nut
        O2
        p_rgh
        PaSR<rhoReactionThermo>:kappa
        Qdot
        G
        p
        T
        epsilon
        qr

    Reconstructing volVectorFields

        U

    Reconstructing surfaceScalarFields

        phi

Reconstructing point fields

No point fields

No lagrangian fields

Skipping time 1760

Time = 1780

Reconstructing FV fields

    Reconstructing volScalarFields

        rho
        CO2
        a
        rDeltaT
        CH4
        k
        H2O
        alphat
        N2
        nut
        O2
        p_rgh
        PaSR<rhoReactionThermo>:kappa
        Qdot
        G
        p
        T
        epsilon
        qr

    Reconstructing volVectorFields

        U

    Reconstructing surfaceScalarFields

        phi

Reconstructing point fields

No point fields

No lagrangian fields

Time = 1800

Reconstructing FV fields

    Reconstructing volScalarFields

        rho
        CO2
        a
        rDeltaT
        CH4
        k
        H2O
        alphat
        N2
        nut
        O2
        p_rgh
        PaSR<rhoReactionThermo>:kappa
        Qdot
        G
        p
        T
        epsilon
        qr

    Reconstructing volVectorFields

        U

    Reconstructing surfaceScalarFields

        phi

Reconstructing point fields

No point fields

No lagrangian fields

Time = 1820

Reconstructing FV fields

    Reconstructing volScalarFields

        rho
        CO2
        a
        rDeltaT
        CH4
        k
        H2O
        alphat
        N2
        nut
        O2
        p_rgh
        PaSR<rhoReactionThermo>:kappa
        Qdot
        G
        p
        T
        epsilon
        qr

    Reconstructing volVectorFields

        U

    Reconstructing surfaceScalarFields

        phi

Reconstructing point fields

No point fields

No lagrangian fields

Time = 1840

Reconstructing FV fields

    Reconstructing volScalarFields

        rho
        CO2
        a
        rDeltaT
        CH4
        k
        H2O
        alphat
        N2
        nut
        O2
        p_rgh
        PaSR<rhoReactionThermo>:kappa
        Qdot
        G
        p
        T
        epsilon
        qr

    Reconstructing volVectorFields

        U

    Reconstructing surfaceScalarFields

        phi

Reconstructing point fields

No point fields

No lagrangian fields

Time = 1860

Reconstructing FV fields

    Reconstructing volScalarFields

        rho
        CO2
        a
        rDeltaT
        CH4
        k
        H2O
        alphat
        N2
        nut
        O2
        p_rgh
        PaSR<rhoReactionThermo>:kappa
        Qdot
        G
        p
        T
        epsilon
        qr

    Reconstructing volVectorFields

        U

    Reconstructing surfaceScalarFields

        phi

Reconstructing point fields

No point fields

No lagrangian fields

Time = 1880

Reconstructing FV fields

    Reconstructing volScalarFields

        rho
        CO2
        a
        rDeltaT
        CH4
        k
        H2O
        alphat
        N2
        nut
        O2
        p_rgh
        PaSR<rhoReactionThermo>:kappa
        Qdot
        G
        p
        T
        epsilon
        qr

    Reconstructing volVectorFields

        U

    Reconstructing surfaceScalarFields

        phi

Reconstructing point fields

No point fields

No lagrangian fields

Time = 1900

Reconstructing FV fields

    Reconstructing volScalarFields

        rho
        CO2
        a
        rDeltaT
        CH4
        k
        H2O
        alphat
        N2
        nut
        O2
        p_rgh
        PaSR<rhoReactionThermo>:kappa
        Qdot
        G
        p
        T
        epsilon
        qr

    Reconstructing volVectorFields

        U

    Reconstructing surfaceScalarFields

        phi

Reconstructing point fields

No point fields

No lagrangian fields

Time = 1920

Reconstructing FV fields

    Reconstructing volScalarFields

        rho
        CO2
        a
        rDeltaT
        CH4
        k
        H2O
        alphat
        N2
        nut
        O2
        p_rgh
        PaSR<rhoReactionThermo>:kappa
        Qdot
        G
        p
        T
        epsilon
        qr

    Reconstructing volVectorFields

        U

    Reconstructing surfaceScalarFields

        phi

Reconstructing point fields

No point fields

No lagrangian fields

Time = 1940

Reconstructing FV fields

    Reconstructing volScalarFields

        rho
        CO2
        a
        rDeltaT
        CH4
        k
        H2O
        alphat
        N2
        nut
        O2
        p_rgh
        PaSR<rhoReactionThermo>:kappa
        Qdot
        G
        p
        T
        epsilon
        qr

    Reconstructing volVectorFields

        U

    Reconstructing surfaceScalarFields

        phi

Reconstructing point fields

No point fields

No lagrangian fields

Time = 1960

Reconstructing FV fields

    Reconstructing volScalarFields

        rho
        CO2
        a
        rDeltaT
        CH4
        k
        H2O
        alphat
        N2
        nut
        O2
        p_rgh
        PaSR<rhoReactionThermo>:kappa
        Qdot
        G
        p
        T
        epsilon
        qr

    Reconstructing volVectorFields

        U

    Reconstructing surfaceScalarFields

        phi

Reconstructing point fields

No point fields

No lagrangian fields

Time = 1980

Reconstructing FV fields

    Reconstructing volScalarFields

        rho
        CO2
        a
        rDeltaT
        CH4
        k
        H2O
        alphat
        N2
        nut
        O2
        p_rgh
        PaSR<rhoReactionThermo>:kappa
        Qdot
        G
        p
        T
        epsilon
        qr

    Reconstructing volVectorFields

        U

    Reconstructing surfaceScalarFields

        phi

Reconstructing point fields

No point fields

No lagrangian fields

Time = 2000

Reconstructing FV fields

    Reconstructing volScalarFields

        rho
        CO2
        a
        rDeltaT
        CH4
        k
        H2O
        alphat
        N2
        nut
        O2
        p_rgh
        PaSR<rhoReactionThermo>:kappa
        Qdot
        G
        p
        T
        epsilon
        qr

    Reconstructing volVectorFields

        U

    Reconstructing surfaceScalarFields

        phi

Reconstructing point fields

No point fields

No lagrangian fields

Time = 2020

Reconstructing FV fields

    Reconstructing volScalarFields

        rho
        CO2
        a
        rDeltaT
        CH4
        k
        H2O
        alphat
        N2
        nut
        O2
        p_rgh
        PaSR<rhoReactionThermo>:kappa
        Qdot
        G
        p
        T
        epsilon
        qr

    Reconstructing volVectorFields

        U

    Reconstructing surfaceScalarFields

        phi

Reconstructing point fields

No point fields

No lagrangian fields

Time = 2040

Reconstructing FV fields

    Reconstructing volScalarFields

        rho
        CO2
        a
        rDeltaT
        CH4
        k
        H2O
        alphat
        N2
        nut
        O2
        p_rgh
        PaSR<rhoReactionThermo>:kappa
        Qdot
        G
        p
        T
        epsilon
        qr

    Reconstructing volVectorFields

        U

    Reconstructing surfaceScalarFields

        phi

Reconstructing point fields

No point fields

No lagrangian fields

Time = 2060

Reconstructing FV fields

    Reconstructing volScalarFields

        rho
        CO2
        a
        rDeltaT
        CH4
        k
        H2O
        alphat
        N2
        nut
        O2
        p_rgh
        PaSR<rhoReactionThermo>:kappa
        Qdot
        G
        p
        T
        epsilon
        qr

    Reconstructing volVectorFields

        U

    Reconstructing surfaceScalarFields

        phi

Reconstructing point fields

No point fields

No lagrangian fields

Time = 2080

Reconstructing FV fields

    Reconstructing volScalarFields

        rho
        CO2
        a
        rDeltaT
        CH4
        k
        H2O
        alphat
        N2
        nut
        O2
        p_rgh
        PaSR<rhoReactionThermo>:kappa
        Qdot
        G
        p
        T
        epsilon
        qr

    Reconstructing volVectorFields

        U

    Reconstructing surfaceScalarFields

        phi

Reconstructing point fields

No point fields

No lagrangian fields

Time = 2100

Reconstructing FV fields

    Reconstructing volScalarFields

        rho
        CO2
        a
        rDeltaT
        CH4
        k
        H2O
        alphat
        N2
        nut
        O2
        p_rgh
        PaSR<rhoReactionThermo>:kappa
        Qdot
        G
        p
        T
        epsilon
        qr

    Reconstructing volVectorFields

        U

    Reconstructing surfaceScalarFields

        phi

Reconstructing point fields

No point fields

No lagrangian fields

Time = 2120

Reconstructing FV fields

    Reconstructing volScalarFields

        rho
        CO2
        a
        rDeltaT
        CH4
        k
        H2O
        alphat
        N2
        nut
        O2
        p_rgh
        PaSR<rhoReactionThermo>:kappa
        Qdot
        G
        p
        T
        epsilon
        qr

    Reconstructing volVectorFields

        U

    Reconstructing surfaceScalarFields

        phi

Reconstructing point fields

No point fields

No lagrangian fields

Time = 2140

Reconstructing FV fields

    Reconstructing volScalarFields

        rho
        CO2
        a
        rDeltaT
        CH4
        k
        H2O
        alphat
        N2
        nut
        O2
        p_rgh
        PaSR<rhoReactionThermo>:kappa
        Qdot
        G
        p
        T
        epsilon
        qr

    Reconstructing volVectorFields

        U

    Reconstructing surfaceScalarFields

        phi

Reconstructing point fields

No point fields

No lagrangian fields

Time = 2160

Reconstructing FV fields

    Reconstructing volScalarFields

        rho
        CO2
        a
        rDeltaT
        CH4
        k
        H2O
        alphat
        N2
        nut
        O2
        p_rgh
        PaSR<rhoReactionThermo>:kappa
        Qdot
        G
        p
        T
        epsilon
        qr

    Reconstructing volVectorFields

        U

    Reconstructing surfaceScalarFields

        phi

Reconstructing point fields

No point fields

No lagrangian fields

Skipping time 2180

Time = 2200

Reconstructing FV fields

    Reconstructing volScalarFields

        rho
        CO2
        a
        rDeltaT
        CH4
        k
        H2O
        alphat
        N2
        nut
        O2
        p_rgh
        PaSR<rhoReactionThermo>:kappa
        Qdot
        G
        p
        T
        epsilon
        qr

    Reconstructing volVectorFields

        U

    Reconstructing surfaceScalarFields

        phi

Reconstructing point fields

No point fields

No lagrangian fields

Time = 2220

Reconstructing FV fields

    Reconstructing volScalarFields

        rho
        CO2
        a
        rDeltaT
        CH4
        k
        H2O
        alphat
        N2
        nut
        O2
        p_rgh
        PaSR<rhoReactionThermo>:kappa
        Qdot
        G
        p
        T
        epsilon
        qr

    Reconstructing volVectorFields

        U

    Reconstructing surfaceScalarFields

        phi

Reconstructing point fields

No point fields

No lagrangian fields

Time = 2240

Reconstructing FV fields

    Reconstructing volScalarFields

        rho
        CO2
        a
        rDeltaT
        CH4
        k
        H2O
        alphat
        N2
        nut
        O2
        p_rgh
        PaSR<rhoReactionThermo>:kappa
        Qdot
        G
        p
        T
        epsilon
        qr

    Reconstructing volVectorFields

        U

    Reconstructing surfaceScalarFields

        phi

Reconstructing point fields

No point fields

No lagrangian fields

Time = 2260

Reconstructing FV fields

    Reconstructing volScalarFields

        rho
        CO2
        a
        rDeltaT
        CH4
        k
        H2O
        alphat
        N2
        nut
        O2
        p_rgh
        PaSR<rhoReactionThermo>:kappa
        Qdot
        G
        p
        T
        epsilon
        qr

    Reconstructing volVectorFields

        U

    Reconstructing surfaceScalarFields

        phi

Reconstructing point fields

No point fields

No lagrangian fields

Time = 2280

Reconstructing FV fields

    Reconstructing volScalarFields

        rho
        CO2
        a
        rDeltaT
        CH4
        k
        H2O
        alphat
        N2
        nut
        O2
        p_rgh
        PaSR<rhoReactionThermo>:kappa
        Qdot
        G
        p
        T
        epsilon
        qr

    Reconstructing volVectorFields

        U

    Reconstructing surfaceScalarFields

        phi

Reconstructing point fields

No point fields

No lagrangian fields

Time = 2300

Reconstructing FV fields

    Reconstructing volScalarFields

        rho
        CO2
        a
        rDeltaT
        CH4
        k
        H2O
        alphat
        N2
        nut
        O2
        p_rgh
        PaSR<rhoReactionThermo>:kappa
        Qdot
        G
        p
        T
        epsilon
        qr

    Reconstructing volVectorFields

        U

    Reconstructing surfaceScalarFields

        phi

Reconstructing point fields

No point fields

No lagrangian fields

Time = 2320

Reconstructing FV fields

    Reconstructing volScalarFields

        rho
        CO2
        a
        rDeltaT
        CH4
        k
        H2O
        alphat
        N2
        nut
        O2
        p_rgh
        PaSR<rhoReactionThermo>:kappa
        Qdot
        G
        p
        T
        epsilon
        qr

    Reconstructing volVectorFields

        U

    Reconstructing surfaceScalarFields

        phi

Reconstructing point fields

No point fields

No lagrangian fields

Time = 2340

Reconstructing FV fields

    Reconstructing volScalarFields

        rho
        CO2
        a
        rDeltaT
        CH4
        k
        H2O
        alphat
        N2
        nut
        O2
        p_rgh
        PaSR<rhoReactionThermo>:kappa
        Qdot
        G
        p
        T
        epsilon
        qr

    Reconstructing volVectorFields

        U

    Reconstructing surfaceScalarFields

        phi

Reconstructing point fields

No point fields

No lagrangian fields

Time = 2360

Reconstructing FV fields

    Reconstructing volScalarFields

        rho
        CO2
        a
        rDeltaT
        CH4
        k
        H2O
        alphat
        N2
        nut
        O2
        p_rgh
        PaSR<rhoReactionThermo>:kappa
        Qdot
        G
        p
        T
        epsilon
        qr

    Reconstructing volVectorFields

        U

    Reconstructing surfaceScalarFields

        phi

Reconstructing point fields

No point fields

No lagrangian fields

Time = 2380

Reconstructing FV fields

    Reconstructing volScalarFields

        rho
        CO2
        a
        rDeltaT
        CH4
        k
        H2O
        alphat
        N2
        nut
        O2
        p_rgh
        PaSR<rhoReactionThermo>:kappa
        Qdot
        G
        p
        T
        epsilon
        qr

    Reconstructing volVectorFields

        U

    Reconstructing surfaceScalarFields

        phi

Reconstructing point fields

No point fields

No lagrangian fields

Time = 2400

Reconstructing FV fields

    Reconstructing volScalarFields

        rho
        CO2
        a
        rDeltaT
        CH4
        k
        H2O
        alphat
        N2
        nut
        O2
        p_rgh
        PaSR<rhoReactionThermo>:kappa
        Qdot
        G
        p
        T
        epsilon
        qr

    Reconstructing volVectorFields

        U

    Reconstructing surfaceScalarFields

        phi

Reconstructing point fields

No point fields

No lagrangian fields

Time = 2420

Reconstructing FV fields

    Reconstructing volScalarFields

        rho
        CO2
        a
        rDeltaT
        CH4
        k
        H2O
        alphat
        N2
        nut
        O2
        p_rgh
        PaSR<rhoReactionThermo>:kappa
        Qdot
        G
        p
        T
        epsilon
        qr

    Reconstructing volVectorFields

        U

    Reconstructing surfaceScalarFields

        phi

Reconstructing point fields

No point fields

No lagrangian fields

Time = 2440

Reconstructing FV fields

    Reconstructing volScalarFields

        rho
        CO2
        a
        rDeltaT
        CH4
        k
        H2O
        alphat
        N2
        nut
        O2
        p_rgh
        PaSR<rhoReactionThermo>:kappa
        Qdot
        G
        p
        T
        epsilon
        qr

    Reconstructing volVectorFields

        U

    Reconstructing surfaceScalarFields

        phi

Reconstructing point fields

No point fields

No lagrangian fields

Time = 2460

Reconstructing FV fields

    Reconstructing volScalarFields

        rho
        CO2
        a
        rDeltaT
        CH4
        k
        H2O
        alphat
        N2
        nut
        O2
        p_rgh
        PaSR<rhoReactionThermo>:kappa
        Qdot
        G
        p
        T
        epsilon
        qr

    Reconstructing volVectorFields

        U

    Reconstructing surfaceScalarFields

        phi

Reconstructing point fields

No point fields

No lagrangian fields

Time = 2480

Reconstructing FV fields

    Reconstructing volScalarFields

        rho
        CO2
        a
        rDeltaT
        CH4
        k
        H2O
        alphat
        N2
        nut
        O2
        p_rgh
        PaSR<rhoReactionThermo>:kappa
        Qdot
        G
        p
        T
        epsilon
        qr

    Reconstructing volVectorFields

        U

    Reconstructing surfaceScalarFields

        phi

Reconstructing point fields

No point fields

No lagrangian fields

Time = 2500

Reconstructing FV fields

    Reconstructing volScalarFields

        rho
        CO2
        a
        rDeltaT
        CH4
        k
        H2O
        alphat
        N2
        nut
        O2
        p_rgh
        PaSR<rhoReactionThermo>:kappa
        Qdot
        G
        p
        T
        epsilon
        qr

    Reconstructing volVectorFields

        U

    Reconstructing surfaceScalarFields

        phi

Reconstructing point fields

No point fields

No lagrangian fields

Time = 2520

Reconstructing FV fields

    Reconstructing volScalarFields

        rho
        CO2
        a
        rDeltaT
        CH4
        k
        H2O
        alphat
        N2
        nut
        O2
        p_rgh
        PaSR<rhoReactionThermo>:kappa
        Qdot
        G
        p
        T
        epsilon
        qr

    Reconstructing volVectorFields

        U

    Reconstructing surfaceScalarFields

        phi

Reconstructing point fields

No point fields

No lagrangian fields

Time = 2540

Reconstructing FV fields

    Reconstructing volScalarFields

        rho
        CO2
        a
        rDeltaT
        CH4
        k
        H2O
        alphat
        N2
        nut
        O2
        p_rgh
        PaSR<rhoReactionThermo>:kappa
        Qdot
        G
        p
        T
        epsilon
        qr

    Reconstructing volVectorFields

        U

    Reconstructing surfaceScalarFields

        phi

Reconstructing point fields

No point fields

No lagrangian fields

Time = 2560

Reconstructing FV fields

    Reconstructing volScalarFields

        rho
        CO2
        a
        rDeltaT
        CH4
        k
        H2O
        alphat
        N2
        nut
        O2
        p_rgh
        PaSR<rhoReactionThermo>:kappa
        Qdot
        G
        p
        T
        epsilon
        qr

    Reconstructing volVectorFields

        U

    Reconstructing surfaceScalarFields

        phi

Reconstructing point fields

No point fields

No lagrangian fields

Time = 2580

Reconstructing FV fields

    Reconstructing volScalarFields

        rho
        CO2
        a
        rDeltaT
        CH4
        k
        H2O
        alphat
        N2
        nut
        O2
        p_rgh
        PaSR<rhoReactionThermo>:kappa
        Qdot
        G
        p
        T
        epsilon
        qr

    Reconstructing volVectorFields

        U

    Reconstructing surfaceScalarFields

        phi

Reconstructing point fields

No point fields

No lagrangian fields

Time = 2600

Reconstructing FV fields

    Reconstructing volScalarFields

        rho
        CO2
        a
        rDeltaT
        CH4
        k
        H2O
        alphat
        N2
        nut
        O2
        p_rgh
        PaSR<rhoReactionThermo>:kappa
        Qdot
        G
        p
        T
        epsilon
        qr

    Reconstructing volVectorFields

        U

    Reconstructing surfaceScalarFields

        phi

Reconstructing point fields

No point fields

No lagrangian fields

Time = 2620

Reconstructing FV fields

    Reconstructing volScalarFields

        rho
        CO2
        a
        rDeltaT
        CH4
        k
        H2O
        alphat
        N2
        nut
        O2
        p_rgh
        PaSR<rhoReactionThermo>:kappa
        Qdot
        G
        p
        T
        epsilon
        qr

    Reconstructing volVectorFields

        U

    Reconstructing surfaceScalarFields

        phi

Reconstructing point fields

No point fields

No lagrangian fields

Time = 2640

Reconstructing FV fields

    Reconstructing volScalarFields

        rho
        CO2
        a
        rDeltaT
        CH4
        k
        H2O
        alphat
        N2
        nut
        O2
        p_rgh
        PaSR<rhoReactionThermo>:kappa
        Qdot
        G
        p
        T
        epsilon
        qr

    Reconstructing volVectorFields

        U

    Reconstructing surfaceScalarFields

        phi

Reconstructing point fields

No point fields

No lagrangian fields

Time = 2660

Reconstructing FV fields

    Reconstructing volScalarFields

        rho
        CO2
        a
        rDeltaT
        CH4
        k
        H2O
        alphat
        N2
        nut
        O2
        p_rgh
        PaSR<rhoReactionThermo>:kappa
        Qdot
        G
        p
        T
        epsilon
        qr

    Reconstructing volVectorFields

        U

    Reconstructing surfaceScalarFields

        phi

Reconstructing point fields

No point fields

No lagrangian fields

Time = 2680

Reconstructing FV fields

    Reconstructing volScalarFields

        rho
        CO2
        a
        rDeltaT
        CH4
        k
        H2O
        alphat
        N2
        nut
        O2
        p_rgh
        PaSR<rhoReactionThermo>:kappa
        Qdot
        G
        p
        T
        epsilon
        qr

    Reconstructing volVectorFields

        U

    Reconstructing surfaceScalarFields

        phi

Reconstructing point fields

No point fields

No lagrangian fields

Time = 2700

Reconstructing FV fields

    Reconstructing volScalarFields

        rho
        CO2
        a
        rDeltaT
        CH4
        k
        H2O
        alphat
        N2
        nut
        O2
        p_rgh
        PaSR<rhoReactionThermo>:kappa
        Qdot
        G
        p
        T
        epsilon
        qr

    Reconstructing volVectorFields

        U

    Reconstructing surfaceScalarFields

        phi

Reconstructing point fields

No point fields

No lagrangian fields

Time = 2720

Reconstructing FV fields

    Reconstructing volScalarFields

        rho
        CO2
        a
        rDeltaT
        CH4
        k
        H2O
        alphat
        N2
        nut
        O2
        p_rgh
        PaSR<rhoReactionThermo>:kappa
        Qdot
        G
        p
        T
        epsilon
        qr

    Reconstructing volVectorFields

        U

    Reconstructing surfaceScalarFields

        phi

Reconstructing point fields

No point fields

No lagrangian fields

Time = 2740

Reconstructing FV fields

    Reconstructing volScalarFields

        rho
        CO2
        a
        rDeltaT
        CH4
        k
        H2O
        alphat
        N2
        nut
        O2
        p_rgh
        PaSR<rhoReactionThermo>:kappa
        Qdot
        G
        p
        T
        epsilon
        qr

    Reconstructing volVectorFields

        U

    Reconstructing surfaceScalarFields

        phi

Reconstructing point fields

No point fields

No lagrangian fields

Time = 2760

Reconstructing FV fields

    Reconstructing volScalarFields

        rho
        CO2
        a
        rDeltaT
        CH4
        k
        H2O
        alphat
        N2
        nut
        O2
        p_rgh
        PaSR<rhoReactionThermo>:kappa
        Qdot
        G
        p
        T
        epsilon
        qr

    Reconstructing volVectorFields

        U

    Reconstructing surfaceScalarFields

        phi

Reconstructing point fields

No point fields

No lagrangian fields

Time = 2780

Reconstructing FV fields

    Reconstructing volScalarFields

        rho
        CO2
        a
        rDeltaT
        CH4
        k
        H2O
        alphat
        N2
        nut
        O2
        p_rgh
        PaSR<rhoReactionThermo>:kappa
        Qdot
        G
        p
        T
        epsilon
        qr

    Reconstructing volVectorFields

        U

    Reconstructing surfaceScalarFields

        phi

Reconstructing point fields

No point fields

No lagrangian fields

Time = 2800

Reconstructing FV fields

    Reconstructing volScalarFields

        rho
        CO2
        a
        rDeltaT
        CH4
        k
        H2O
        alphat
        N2
        nut
        O2
        p_rgh
        PaSR<rhoReactionThermo>:kappa
        Qdot
        G
        p
        T
        epsilon
        qr

    Reconstructing volVectorFields

        U

    Reconstructing surfaceScalarFields

        phi

Reconstructing point fields

No point fields

No lagrangian fields

Time = 2820

Reconstructing FV fields

    Reconstructing volScalarFields

        rho
        CO2
        a
        rDeltaT
        CH4
        k
        H2O
        alphat
        N2
        nut
        O2
        p_rgh
        PaSR<rhoReactionThermo>:kappa
        Qdot
        G
        p
        T
        epsilon
        qr

    Reconstructing volVectorFields

        U

    Reconstructing surfaceScalarFields

        phi

Reconstructing point fields

No point fields

No lagrangian fields

Time = 2840

Reconstructing FV fields

    Reconstructing volScalarFields

        rho
        CO2
        a
        rDeltaT
        CH4
        k
        H2O
        alphat
        N2
        nut
        O2
        p_rgh
        PaSR<rhoReactionThermo>:kappa
        Qdot
        G
        p
        T
        epsilon
        qr

    Reconstructing volVectorFields

        U

    Reconstructing surfaceScalarFields

        phi

Reconstructing point fields

No point fields

No lagrangian fields

Time = 2860

Reconstructing FV fields

    Reconstructing volScalarFields

        rho
        CO2
        a
        rDeltaT
        CH4
        k
        H2O
        alphat
        N2
        nut
        O2
        p_rgh
        PaSR<rhoReactionThermo>:kappa
        Qdot
        G
        p
        T
        epsilon
        qr

    Reconstructing volVectorFields

        U

    Reconstructing surfaceScalarFields

        phi

Reconstructing point fields

No point fields

No lagrangian fields

Time = 2880

Reconstructing FV fields

    Reconstructing volScalarFields

        rho
        CO2
        a
        rDeltaT
        CH4
        k
        H2O
        alphat
        N2
        nut
        O2
        p_rgh
        PaSR<rhoReactionThermo>:kappa
        Qdot
        G
        p
        T
        epsilon
        qr

    Reconstructing volVectorFields

        U

    Reconstructing surfaceScalarFields

        phi

Reconstructing point fields

No point fields

No lagrangian fields

Time = 2900

Reconstructing FV fields

    Reconstructing volScalarFields

        rho
        CO2
        a
        rDeltaT
        CH4
        k
        H2O
        alphat
        N2
        nut
        O2
        p_rgh
        PaSR<rhoReactionThermo>:kappa
        Qdot
        G
        p
        T
        epsilon
        qr

    Reconstructing volVectorFields

        U

    Reconstructing surfaceScalarFields

        phi

Reconstructing point fields

No point fields

No lagrangian fields

Time = 2920

Reconstructing FV fields

    Reconstructing volScalarFields

        rho
        CO2
        a
        rDeltaT
        CH4
        k
        H2O
        alphat
        N2
        nut
        O2
        p_rgh
        PaSR<rhoReactionThermo>:kappa
        Qdot
        G
        p
        T
        epsilon
        qr

    Reconstructing volVectorFields

        U

    Reconstructing surfaceScalarFields

        phi

Reconstructing point fields

No point fields

No lagrangian fields

Time = 2940

Reconstructing FV fields

    Reconstructing volScalarFields

        rho
        CO2
        a
        rDeltaT
        CH4
        k
        H2O
        alphat
        N2
        nut
        O2
        p_rgh
        PaSR<rhoReactionThermo>:kappa
        Qdot
        G
        p
        T
        epsilon
        qr

    Reconstructing volVectorFields

        U

    Reconstructing surfaceScalarFields

        phi

Reconstructing point fields

No point fields

No lagrangian fields

Time = 2960

Reconstructing FV fields

    Reconstructing volScalarFields

        rho
        CO2
        a
        rDeltaT
        CH4
        k
        H2O
        alphat
        N2
        nut
        O2
        p_rgh
        PaSR<rhoReactionThermo>:kappa
        Qdot
        G
        p
        T
        epsilon
        qr

    Reconstructing volVectorFields

        U

    Reconstructing surfaceScalarFields

        phi

Reconstructing point fields

No point fields

No lagrangian fields

Time = 2980

Reconstructing FV fields

    Reconstructing volScalarFields

        rho
        CO2
        a
        rDeltaT
        CH4
        k
        H2O
        alphat
        N2
        nut
        O2
        p_rgh
        PaSR<rhoReactionThermo>:kappa
        Qdot
        G
        p
        T
        epsilon
        qr

    Reconstructing volVectorFields

        U

    Reconstructing surfaceScalarFields

        phi

Reconstructing point fields

No point fields

No lagrangian fields

Time = 3000

Reconstructing FV fields

    Reconstructing volScalarFields

        rho
        CO2
        a
        rDeltaT
        CH4
        k
        H2O
        alphat
        N2
        nut
        O2
        p_rgh
        PaSR<rhoReactionThermo>:kappa
        Qdot
        G
        p
        T
        epsilon
        qr

    Reconstructing volVectorFields

        U

    Reconstructing surfaceScalarFields

        phi

Reconstructing point fields

No point fields

No lagrangian fields

Time = 3020

Reconstructing FV fields

    Reconstructing volScalarFields

        rho
        CO2
        a
        rDeltaT
        CH4
        k
        H2O
        alphat
        N2
        nut
        O2
        p_rgh
        PaSR<rhoReactionThermo>:kappa
        Qdot
        G
        p
        T
        epsilon
        qr

    Reconstructing volVectorFields

        U

    Reconstructing surfaceScalarFields

        phi

Reconstructing point fields

No point fields

No lagrangian fields

Time = 3040

Reconstructing FV fields

    Reconstructing volScalarFields

        rho
        CO2
        a
        rDeltaT
        CH4
        k
        H2O
        alphat
        N2
        nut
        O2
        p_rgh
        PaSR<rhoReactionThermo>:kappa
        Qdot
        G
        p
        T
        epsilon
        qr

    Reconstructing volVectorFields

        U

    Reconstructing surfaceScalarFields

        phi

Reconstructing point fields

No point fields

No lagrangian fields

Time = 3060

Reconstructing FV fields

    Reconstructing volScalarFields

        rho
        CO2
        a
        rDeltaT
        CH4
        k
        H2O
        alphat
        N2
        nut
        O2
        p_rgh
        PaSR<rhoReactionThermo>:kappa
        Qdot
        G
        p
        T
        epsilon
        qr

    Reconstructing volVectorFields

        U

    Reconstructing surfaceScalarFields

        phi

Reconstructing point fields

No point fields

No lagrangian fields

Time = 3080

Reconstructing FV fields

    Reconstructing volScalarFields

        rho
        CO2
        a
        rDeltaT
        CH4
        k
        H2O
        alphat
        N2
        nut
        O2
        p_rgh
        PaSR<rhoReactionThermo>:kappa
        Qdot
        G
        p
        T
        epsilon
        qr

    Reconstructing volVectorFields

        U

    Reconstructing surfaceScalarFields

        phi

Reconstructing point fields

No point fields

No lagrangian fields

Skipping time 3100

Time = 3120

Reconstructing FV fields

    Reconstructing volScalarFields

        rho
        CO2
        a
        rDeltaT
        CH4
        k
        H2O
        alphat
        N2
        nut
        O2
        p_rgh
        PaSR<rhoReactionThermo>:kappa
        Qdot
        G
        p
        T
        epsilon
        qr

    Reconstructing volVectorFields

        U

    Reconstructing surfaceScalarFields

        phi

Reconstructing point fields

No point fields

No lagrangian fields

Time = 3140

Reconstructing FV fields

    Reconstructing volScalarFields

        rho
        CO2
        a
        rDeltaT
        CH4
        k
        H2O
        alphat
        N2
        nut
        O2
        p_rgh
        PaSR<rhoReactionThermo>:kappa
        Qdot
        G
        p
        T
        epsilon
        qr

    Reconstructing volVectorFields

        U

    Reconstructing surfaceScalarFields

        phi

Reconstructing point fields

No point fields

No lagrangian fields

Time = 3160

Reconstructing FV fields

    Reconstructing volScalarFields

        rho
        CO2
        a
        rDeltaT
        CH4
        k
        H2O
        alphat
        N2
        nut
        O2
        p_rgh
        PaSR<rhoReactionThermo>:kappa
        Qdot
        G
        p
        T
        epsilon
        qr

    Reconstructing volVectorFields

        U

    Reconstructing surfaceScalarFields

        phi

Reconstructing point fields

No point fields

No lagrangian fields

Time = 3180

Reconstructing FV fields

    Reconstructing volScalarFields

        rho
        CO2
        a
        rDeltaT
        CH4
        k
        H2O
        alphat
        N2
        nut
        O2
        p_rgh
        PaSR<rhoReactionThermo>:kappa
        Qdot
        G
        p
        T
        epsilon
        qr

    Reconstructing volVectorFields

        U

    Reconstructing surfaceScalarFields

        phi

Reconstructing point fields

No point fields

No lagrangian fields

Time = 3200

Reconstructing FV fields

    Reconstructing volScalarFields

        rho
        CO2
        a
        rDeltaT
        CH4
        k
        H2O
        alphat
        N2
        nut
        O2
        p_rgh
        PaSR<rhoReactionThermo>:kappa
        Qdot
        G
        p
        T
        epsilon
        qr

    Reconstructing volVectorFields

        U

    Reconstructing surfaceScalarFields

        phi

Reconstructing point fields

No point fields

No lagrangian fields

Time = 3220

Reconstructing FV fields

    Reconstructing volScalarFields

        rho
        CO2
        a
        rDeltaT
        CH4
        k
        H2O
        alphat
        N2
        nut
        O2
        p_rgh
        PaSR<rhoReactionThermo>:kappa
        Qdot
        G
        p
        T
        epsilon
        qr

    Reconstructing volVectorFields

        U

    Reconstructing surfaceScalarFields

        phi

Reconstructing point fields

No point fields

No lagrangian fields

Time = 3240

Reconstructing FV fields

[...]

No lagrangian fields

Time = 5940

Reconstructing FV fields

    Reconstructing volScalarFields

        rho
        CO2
        a
        rDeltaT
        CH4
        k
        H2O
        alphat
        N2
        nut
        O2
        p_rgh
        PaSR<rhoReactionThermo>:kappa
        Qdot
        G
        p
        T
        epsilon
        qr

    Reconstructing volVectorFields

        U

    Reconstructing surfaceScalarFields

        phi

Reconstructing point fields

No point fields

No lagrangian fields

Time = 5960

Reconstructing FV fields

    Reconstructing volScalarFields

        rho
        CO2
        a
        rDeltaT
        CH4
        k
        H2O
        alphat
        N2
        nut
        O2
        p_rgh
        PaSR<rhoReactionThermo>:kappa
        Qdot
        G
        p
        T
        epsilon
        qr

    Reconstructing volVectorFields

        U

    Reconstructing surfaceScalarFields

        phi

Reconstructing point fields

No point fields

No lagrangian fields

Time = 5980

Reconstructing FV fields

    Reconstructing volScalarFields

        rho
        CO2
        a
        rDeltaT
        CH4
        k
        H2O
        alphat
        N2
        nut
        O2
        p_rgh
        PaSR<rhoReactionThermo>:kappa
        Qdot
        G
        p
        T
        epsilon
        qr

    Reconstructing volVectorFields

        U

    Reconstructing surfaceScalarFields

        phi

Reconstructing point fields

No point fields

No lagrangian fields

Time = 6000

Reconstructing FV fields

    Reconstructing volScalarFields

        rho
        CO2
        a
        rDeltaT
        CH4
        k
        H2O
        alphat
        N2
        nut
        O2
        p_rgh
        PaSR<rhoReactionThermo>:kappa
        Qdot
        G
        p
        T
        epsilon
        qr

    Reconstructing volVectorFields

        U

    Reconstructing surfaceScalarFields

        phi

Reconstructing point fields

No point fields

No lagrangian fields

Time = 6020

Reconstructing FV fields

    Reconstructing volScalarFields

        rho
        CO2
        a
        rDeltaT
        CH4
        k
        H2O
        alphat
        N2
        nut
        O2
        p_rgh
        PaSR<rhoReactionThermo>:kappa
        Qdot
        G
        p
        T
        epsilon
        qr

    Reconstructing volVectorFields

        U

    Reconstructing surfaceScalarFields

        phi

Reconstructing point fields

No point fields

No lagrangian fields

Time = 6040

Reconstructing FV fields

    Reconstructing volScalarFields

        rho
        CO2
        a
        rDeltaT
        CH4
        k
        H2O
        alphat
        N2
        nut
        O2
        p_rgh
        PaSR<rhoReactionThermo>:kappa
        Qdot
        G
        p
        T
        epsilon
        qr

    Reconstructing volVectorFields

        U

    Reconstructing surfaceScalarFields

        phi

Reconstructing point fields

No point fields

No lagrangian fields

Time = 6060

Reconstructing FV fields

    Reconstructing volScalarFields

        rho
        CO2
        a
        rDeltaT
        CH4
        k
        H2O
        alphat
        N2
        nut
        O2
        p_rgh
        PaSR<rhoReactionThermo>:kappa
        Qdot
        G
        p
        T
        epsilon
        qr

    Reconstructing volVectorFields

        U

    Reconstructing surfaceScalarFields

        phi

Reconstructing point fields

No point fields

No lagrangian fields

Time = 6080

Reconstructing FV fields

    Reconstructing volScalarFields

        rho
        CO2
        a
        rDeltaT
        CH4
        k
        H2O
        alphat
        N2
        nut
        O2
        p_rgh
        PaSR<rhoReactionThermo>:kappa
        Qdot
        G
        p
        T
        epsilon
        qr

    Reconstructing volVectorFields

        U

    Reconstructing surfaceScalarFields

        phi

Reconstructing point fields

No point fields

No lagrangian fields

Time = 6100

Reconstructing FV fields

    Reconstructing volScalarFields

        rho
        CO2
        a
        rDeltaT
        CH4
        k
        H2O
        alphat
        N2
        nut
        O2
        p_rgh
        PaSR<rhoReactionThermo>:kappa
        Qdot
        G
        p
        T
        epsilon
        qr

    Reconstructing volVectorFields

        U

    Reconstructing surfaceScalarFields

        phi

Reconstructing point fields

No point fields

No lagrangian fields

Time = 6120

Reconstructing FV fields

    Reconstructing volScalarFields

        rho
        CO2
        a
        rDeltaT
        CH4
        k
        H2O
        alphat
        N2
        nut
        O2
        p_rgh
        PaSR<rhoReactionThermo>:kappa
        Qdot
        G
        p
        T
        epsilon
        qr

    Reconstructing volVectorFields

        U

    Reconstructing surfaceScalarFields

        phi

Reconstructing point fields

No point fields

No lagrangian fields

Time = 6140

Reconstructing FV fields

    Reconstructing volScalarFields

        rho
        CO2
        a
        rDeltaT
        CH4
        k
        H2O
        alphat
        N2
        nut
        O2
        p_rgh
        PaSR<rhoReactionThermo>:kappa
        Qdot
        G
        p
        T
        epsilon
        qr

    Reconstructing volVectorFields

        U

    Reconstructing surfaceScalarFields

        phi

Reconstructing point fields

No point fields

No lagrangian fields

Time = 6160

Reconstructing FV fields

    Reconstructing volScalarFields

        rho
        CO2
        a
        rDeltaT
        CH4
        k
        H2O
        alphat
        N2
        nut
        O2
        p_rgh
        PaSR<rhoReactionThermo>:kappa
        Qdot
        G
        p
        T
        epsilon
        qr

    Reconstructing volVectorFields

        U

    Reconstructing surfaceScalarFields

        phi

Reconstructing point fields

No point fields

No lagrangian fields

Time = 6180

Reconstructing FV fields

    Reconstructing volScalarFields

        rho
        CO2
        a
        rDeltaT
        CH4
        k
        H2O
        alphat
        N2
        nut
        O2
        p_rgh
        PaSR<rhoReactionThermo>:kappa
        Qdot
        G
        p
        T
        epsilon
        qr

    Reconstructing volVectorFields

        U

    Reconstructing surfaceScalarFields

        phi

Reconstructing point fields

No point fields

No lagrangian fields

Time = 6200

Reconstructing FV fields

    Reconstructing volScalarFields

        rho
        CO2
        a
        rDeltaT
        CH4
        k
        H2O
        alphat
        N2
        nut
        O2
        p_rgh
        PaSR<rhoReactionThermo>:kappa
        Qdot
        G
        p
        T
        epsilon
        qr

    Reconstructing volVectorFields

        U

    Reconstructing surfaceScalarFields

        phi

Reconstructing point fields

No point fields

No lagrangian fields

Time = 6220

Reconstructing FV fields

    Reconstructing volScalarFields

        rho
        CO2
        a
        rDeltaT
        CH4
        k
        H2O
        alphat
        N2
        nut
        O2
        p_rgh
        PaSR<rhoReactionThermo>:kappa
        Qdot
        G
        p
        T
        epsilon
        qr

    Reconstructing volVectorFields

        U

    Reconstructing surfaceScalarFields

        phi

Reconstructing point fields

No point fields

No lagrangian fields

Time = 6240

Reconstructing FV fields

    Reconstructing volScalarFields

        rho
        CO2
        a
        rDeltaT
        CH4
        k
        H2O
        alphat
        N2
        nut
        O2
        p_rgh
        PaSR<rhoReactionThermo>:kappa
        Qdot
        G
        p
        T
        epsilon
        qr

    Reconstructing volVectorFields

        U

    Reconstructing surfaceScalarFields

        phi

Reconstructing point fields

No point fields

No lagrangian fields

Time = 6260

Reconstructing FV fields

    Reconstructing volScalarFields

        rho
        CO2
        a
        rDeltaT
        CH4
        k
        H2O
        alphat
        N2
        nut
        O2
        p_rgh
        PaSR<rhoReactionThermo>:kappa
        Qdot
        G
        p
        T
        epsilon
        qr

    Reconstructing volVectorFields

        U

    Reconstructing surfaceScalarFields

        phi

Reconstructing point fields

No point fields

No lagrangian fields

Time = 6280

Reconstructing FV fields

    Reconstructing volScalarFields

        rho
        CO2
        a
        rDeltaT
        CH4
        k
        H2O
        alphat
        N2
        nut
        O2
        p_rgh
        PaSR<rhoReactionThermo>:kappa
        Qdot
        G
        p
        T
        epsilon
        qr

    Reconstructing volVectorFields

        U

    Reconstructing surfaceScalarFields

        phi

Reconstructing point fields

No point fields

No lagrangian fields

Time = 6300

Reconstructing FV fields

    Reconstructing volScalarFields

        rho
        CO2
        a
        rDeltaT
        CH4
        k
        H2O
        alphat
        N2
        nut
        O2
        p_rgh
        PaSR<rhoReactionThermo>:kappa
        Qdot
        G
        p
        T
        epsilon
        qr

    Reconstructing volVectorFields

        U

    Reconstructing surfaceScalarFields

        phi

Reconstructing point fields

No point fields

No lagrangian fields

Time = 6320

Reconstructing FV fields

    Reconstructing volScalarFields

        rho
        CO2
        a
        rDeltaT
        CH4
        k
        H2O
        alphat
        N2
        nut
        O2
        p_rgh
        PaSR<rhoReactionThermo>:kappa
        Qdot
        G
        p
        T
        epsilon
        qr

    Reconstructing volVectorFields

        U

    Reconstructing surfaceScalarFields

        phi

Reconstructing point fields

No point fields

No lagrangian fields

Time = 6340

Reconstructing FV fields

    Reconstructing volScalarFields

        rho
        CO2
        a
        rDeltaT
        CH4
        k
        H2O
        alphat
        N2
        nut
        O2
        p_rgh
        PaSR<rhoReactionThermo>:kappa
        Qdot
        G
        p
        T
        epsilon
        qr

    Reconstructing volVectorFields

        U

    Reconstructing surfaceScalarFields

        phi

Reconstructing point fields

No point fields

No lagrangian fields

Time = 6360

Reconstructing FV fields

    Reconstructing volScalarFields

        rho
        CO2
        a
        rDeltaT
        CH4
        k
        H2O
        alphat
        N2
        nut
        O2
        p_rgh
        PaSR<rhoReactionThermo>:kappa
        Qdot
        G
        p
        T
        epsilon
        qr

    Reconstructing volVectorFields

        U

    Reconstructing surfaceScalarFields

        phi

Reconstructing point fields

No point fields

No lagrangian fields

Time = 6380

Reconstructing FV fields

    Reconstructing volScalarFields

        rho
        CO2
        a
        rDeltaT
        CH4
        k
        H2O
        alphat
        N2
        nut
        O2
        p_rgh
        PaSR<rhoReactionThermo>:kappa
        Qdot
        G
        p
        T
        epsilon
        qr

    Reconstructing volVectorFields

        U

    Reconstructing surfaceScalarFields

        phi

Reconstructing point fields

No point fields

No lagrangian fields

Time = 6400

Reconstructing FV fields

    Reconstructing volScalarFields

        rho
        CO2
        a
        rDeltaT
        CH4
        k
        H2O
        alphat
        N2
        nut
        O2
        p_rgh
        PaSR<rhoReactionThermo>:kappa
        Qdot
        G
        p
        T
        epsilon
        qr

    Reconstructing volVectorFields

        U

    Reconstructing surfaceScalarFields

        phi

Reconstructing point fields

No point fields

No lagrangian fields

Time = 6420

Reconstructing FV fields

    Reconstructing volScalarFields

        rho
        CO2
        a
        rDeltaT
        CH4
        k
        H2O
        alphat
        N2
        nut
        O2
        p_rgh
        PaSR<rhoReactionThermo>:kappa
        Qdot
        G
        p
        T
        epsilon
        qr

    Reconstructing volVectorFields

        U

    Reconstructing surfaceScalarFields

        phi

Reconstructing point fields

No point fields

No lagrangian fields

Time = 6440

Reconstructing FV fields

    Reconstructing volScalarFields

        rho
        CO2
        a
        rDeltaT
        CH4
        k
        H2O
        alphat
        N2
        nut
        O2
        p_rgh
        PaSR<rhoReactionThermo>:kappa
        Qdot
        G
        p
        T
        epsilon
        qr

    Reconstructing volVectorFields

        U

    Reconstructing surfaceScalarFields

        phi

Reconstructing point fields

No point fields

No lagrangian fields

Time = 6460

Reconstructing FV fields

    Reconstructing volScalarFields

        rho
        CO2
        a
        rDeltaT
        CH4
        k
        H2O
        alphat
        N2
        nut
        O2
        p_rgh
        PaSR<rhoReactionThermo>:kappa
        Qdot
        G
        p
        T
        epsilon
        qr

    Reconstructing volVectorFields

        U

    Reconstructing surfaceScalarFields

        phi

Reconstructing point fields

No point fields

No lagrangian fields

Time = 6480

Reconstructing FV fields

    Reconstructing volScalarFields

        rho
        CO2
        a
        rDeltaT
        CH4
        k
        H2O
        alphat
        N2
        nut
        O2
        p_rgh
        PaSR<rhoReactionThermo>:kappa
        Qdot
        G
        p
        T
        epsilon
        qr

    Reconstructing volVectorFields

        U

    Reconstructing surfaceScalarFields

        phi

Reconstructing point fields

No point fields

No lagrangian fields

Time = 6500

Reconstructing FV fields

    Reconstructing volScalarFields

        rho
        CO2
        a
        rDeltaT
        CH4
        k
        H2O
        alphat
        N2
        nut
        O2
        p_rgh
        PaSR<rhoReactionThermo>:kappa
        Qdot
        G
        p
        T
        epsilon
        qr

    Reconstructing volVectorFields

        U

    Reconstructing surfaceScalarFields

        phi

Reconstructing point fields

No point fields

No lagrangian fields

Time = 6520

Reconstructing FV fields

    Reconstructing volScalarFields

        rho
        CO2
        a
        rDeltaT
        CH4
        k
        H2O
        alphat
        N2
        nut
        O2
        p_rgh
        PaSR<rhoReactionThermo>:kappa
        Qdot
        G
        p
        T
        epsilon
        qr

    Reconstructing volVectorFields

        U

    Reconstructing surfaceScalarFields

        phi

Reconstructing point fields

No point fields

No lagrangian fields

Time = 6540

Reconstructing FV fields

    Reconstructing volScalarFields

        rho
        CO2
        a
        rDeltaT
        CH4
        k
        H2O
        alphat
        N2
        nut
        O2
        p_rgh
        PaSR<rhoReactionThermo>:kappa
        Qdot
        G
        p
        T
        epsilon
        qr

    Reconstructing volVectorFields

        U

    Reconstructing surfaceScalarFields

        phi

Reconstructing point fields

No point fields

No lagrangian fields

Time = 6560

Reconstructing FV fields

    Reconstructing volScalarFields

        rho
        CO2
        a
        rDeltaT
        CH4
        k
        H2O
        alphat
        N2
        nut
        O2
        p_rgh
        PaSR<rhoReactionThermo>:kappa
        Qdot
        G
        p
        T
        epsilon
        qr

    Reconstructing volVectorFields

        U

    Reconstructing surfaceScalarFields

        phi

Reconstructing point fields

No point fields

No lagrangian fields

Time = 6580

Reconstructing FV fields

    Reconstructing volScalarFields

        rho
        CO2
        a
        rDeltaT
        CH4
        k
        H2O
        alphat
        N2
        nut
        O2
        p_rgh
        PaSR<rhoReactionThermo>:kappa
        Qdot
        G
        p
        T
        epsilon
        qr

    Reconstructing volVectorFields

        U

    Reconstructing surfaceScalarFields

        phi

Reconstructing point fields

No point fields

No lagrangian fields

Time = 6600

Reconstructing FV fields

    Reconstructing volScalarFields

        rho
        CO2
        a
        rDeltaT
        CH4
        k
        H2O
        alphat
        N2
        nut
        O2
        p_rgh
        PaSR<rhoReactionThermo>:kappa
        Qdot
        G
        p
        T
        epsilon
        qr

    Reconstructing volVectorFields

        U

    Reconstructing surfaceScalarFields

        phi

Reconstructing point fields

No point fields

No lagrangian fields

Time = 6620

Reconstructing FV fields

    Reconstructing volScalarFields

        rho
        CO2
        a
        rDeltaT
        CH4
        k
        H2O
        alphat
        N2
        nut
        O2
        p_rgh
        PaSR<rhoReactionThermo>:kappa
        Qdot
        G
        p
        T
        epsilon
        qr

    Reconstructing volVectorFields

        U

    Reconstructing surfaceScalarFields

        phi

Reconstructing point fields

No point fields

No lagrangian fields

Time = 6640

Reconstructing FV fields

    Reconstructing volScalarFields

        rho
        CO2
        a
        rDeltaT
        CH4
        k
        H2O
        alphat
        N2
        nut
        O2
        p_rgh
        PaSR<rhoReactionThermo>:kappa
        Qdot
        G
        p
        T
        epsilon
        qr

    Reconstructing volVectorFields

        U

    Reconstructing surfaceScalarFields

        phi

Reconstructing point fields

No point fields

No lagrangian fields

Time = 6660

Reconstructing FV fields

    Reconstructing volScalarFields

        rho
        CO2
        a
        rDeltaT
        CH4
        k
        H2O
        alphat
        N2
        nut
        O2
        p_rgh
        PaSR<rhoReactionThermo>:kappa
        Qdot
        G
        p
        T
        epsilon
        qr

    Reconstructing volVectorFields

        U

    Reconstructing surfaceScalarFields

        phi

Reconstructing point fields

No point fields

No lagrangian fields

Time = 6680

Reconstructing FV fields

    Reconstructing volScalarFields

        rho
        CO2
        a
        rDeltaT
        CH4
        k
        H2O
        alphat
        N2
        nut
        O2
        p_rgh
        PaSR<rhoReactionThermo>:kappa
        Qdot
        G
        p
        T
        epsilon
        qr

    Reconstructing volVectorFields

        U

    Reconstructing surfaceScalarFields

        phi

Reconstructing point fields

No point fields

No lagrangian fields

Time = 6700

Reconstructing FV fields

    Reconstructing volScalarFields

        rho
        CO2
        a
        rDeltaT
        CH4
        k
        H2O
        alphat
        N2
        nut
        O2
        p_rgh
        PaSR<rhoReactionThermo>:kappa
        Qdot
        G
        p
        T
        epsilon
        qr

    Reconstructing volVectorFields

        U

    Reconstructing surfaceScalarFields

        phi

Reconstructing point fields

No point fields

No lagrangian fields

Time = 6720

Reconstructing FV fields

    Reconstructing volScalarFields

        rho
        CO2
        a
        rDeltaT
        CH4
        k
        H2O
        alphat
        N2
        nut
        O2
        p_rgh
        PaSR<rhoReactionThermo>:kappa
        Qdot
        G
        p
        T
        epsilon
        qr

    Reconstructing volVectorFields

        U

    Reconstructing surfaceScalarFields

        phi

Reconstructing point fields

No point fields

No lagrangian fields

Time = 6740

